*************************************************
   ChampSim Multicore Out-of-Order Simulator
   Last compiled: Dec 11 2024 17:59:53
*************************************************
parsing config file: /home/functionmain/桌面/Pythia/config/spp_dev2.ini

trace_0 /home/functionmain/桌面/Pythia/traces/437.leslie3d-265B.champsimtrace.xz
adding L2C_PREFETCHER: SPP_dev2
Initialize SIGNATURE TABLE
ST_SET: 1
ST_WAY: 256
ST_TAG_BIT: 16
ST_TAG_MASK: ffff

Initialize PATTERN TABLE
PT_SET: 512
PT_WAY: 4
SIG_DELTA_BIT: 7
C_SIG_BIT: 4
C_DELTA_BIT: 4

Initialize PREFETCH FILTER
FILTER_SET: 1024
fill_threshold: 90
pf_threshold: 40

Initialize SHIP state
warmup_instructions 100000000
simulation_instructions 500000000
champsim_seed 223
measure_ipc 0
measure_ipc_epoch 1000
measure_dram_bw 1
measure_dram_bw_epoch 256
measure_cache_acc 1
measure_cache_acc_epoch 1024
l1d_perfect 0
l2c_perfect 0
llc_perfect 0
l1d_semi_perfect 0
l2c_semi_perfect 0
llc_semi_perfect 0
semi_perfect_cache_page_buffer_size 64

num_cpus 1
cpu_freq 4000
dram_io_freq 150
page_size 4096
block_size 64
max_read_per_cycle 8
max_fill_per_cycle 1
dram_channels 1
log2_dram_channels 0
dram_ranks 1
dram_banks 8
dram_rows 65536
dram_columns 128
dram_row_size 8
dram_size 4096
dram_pages 1048576

fetch_width 6
decode_width 6
exec_width 4
lq_width 2
sq_width 2
retire_width 4
scheduler_size 128
branch_mispredict_penalty 20
rob_size 256
lq_size 72
sq_size 56
num_instr_destinations_sparc 4
num_instr_destinations 2
num_instr_sources 4

itlb_set 16
itlb_way 8
itlb_rq_size 16
itlb_wq_size 16
itlb_pq_size 0
itlb_mshr_size 8
itlb_latency 1

dtlb_set 16
dtlb_way 4
dtlb_rq_size 16
dtlb_wq_size 16
dtlb_pq_size 0
dtlb_mshr_size 8
dtlb_latency 1

stlb_set 128
stlb_way 12
stlb_rq_size 32
stlb_wq_size 32
stlb_pq_size 0
stlb_mshr_size 16
stlb_latency 8

l1i_size 32
l1i_set 64
l1i_way 8
l1i_rq_size 64
l1i_wq_size 64
l1i_pq_size 8
l1i_mshr_size 8
l1i_latency 1

l1d_size 32
l1d_set 64
l1d_way 8
l1d_rq_size 64
l1d_wq_size 64
l1d_pq_size 8
l1d_mshr_size 16
l1d_latency 4

l2c_size 256
l2c_set 512
l2c_way 8
l2c_rq_size 32
l2c_wq_size 32
l2c_pq_size 32
l2c_mshr_size 32
l2c_latency 10

llc_size 2048
llc_set 2048
llc_way 16
llc_rq_size 32
llc_wq_size 32
llc_pq_size 32
llc_mshr_size 64
llc_latency 20

dram_channel_width 8
dram_wq_size 64
dram_rq_size 64
tRP 15
tRCD 15
tCAS 12.5
dram_dbus_turn_around_time 30
dram_write_high_wm 56
dram_write_low_wm 48
min_dram_writes_per_switch 16
dram_mtps 150
dram_dbus_return_time 213


Heartbeat CPU  0 instructions:    1000003 cycles:     500827 heartbeat IPC: 1.99670 cumulative IPC: 1.99670 (Simulation time: 0 hr 0 min 1 sec) 
Heartbeat CPU  0 instructions:    2000001 cycles:    1000170 heartbeat IPC: 2.00263 cumulative IPC: 1.99966 (Simulation time: 0 hr 0 min 3 sec) 
Heartbeat CPU  0 instructions:    3000001 cycles:    1500044 heartbeat IPC: 2.00050 cumulative IPC: 1.99994 (Simulation time: 0 hr 0 min 5 sec) 
Heartbeat CPU  0 instructions:    4000000 cycles:    1999845 heartbeat IPC: 2.00079 cumulative IPC: 2.00015 (Simulation time: 0 hr 0 min 7 sec) 
Heartbeat CPU  0 instructions:    5000003 cycles:    2498808 heartbeat IPC: 2.00416 cumulative IPC: 2.00096 (Simulation time: 0 hr 0 min 9 sec) 
Heartbeat CPU  0 instructions:    6000001 cycles:    2998972 heartbeat IPC: 1.99934 cumulative IPC: 2.00069 (Simulation time: 0 hr 0 min 10 sec) 
Heartbeat CPU  0 instructions:    7000002 cycles:    3496926 heartbeat IPC: 2.00822 cumulative IPC: 2.00176 (Simulation time: 0 hr 0 min 12 sec) 
Heartbeat CPU  0 instructions:    8000000 cycles:    3997240 heartbeat IPC: 1.99874 cumulative IPC: 2.00138 (Simulation time: 0 hr 0 min 14 sec) 
Heartbeat CPU  0 instructions:    9000003 cycles:    4495015 heartbeat IPC: 2.00895 cumulative IPC: 2.00222 (Simulation time: 0 hr 0 min 16 sec) 
Heartbeat CPU  0 instructions:   10000001 cycles:    4994975 heartbeat IPC: 2.00016 cumulative IPC: 2.00201 (Simulation time: 0 hr 0 min 18 sec) 
Heartbeat CPU  0 instructions:   11000002 cycles:    5492233 heartbeat IPC: 2.01103 cumulative IPC: 2.00283 (Simulation time: 0 hr 0 min 20 sec) 
Heartbeat CPU  0 instructions:   12000000 cycles:    5993182 heartbeat IPC: 1.99621 cumulative IPC: 2.00228 (Simulation time: 0 hr 0 min 22 sec) 
Heartbeat CPU  0 instructions:   13000002 cycles:    6490490 heartbeat IPC: 2.01083 cumulative IPC: 2.00293 (Simulation time: 0 hr 0 min 24 sec) 
Heartbeat CPU  0 instructions:   14000002 cycles:    6991129 heartbeat IPC: 1.99745 cumulative IPC: 2.00254 (Simulation time: 0 hr 0 min 26 sec) 
Heartbeat CPU  0 instructions:   15000000 cycles:    7488693 heartbeat IPC: 2.00979 cumulative IPC: 2.00302 (Simulation time: 0 hr 0 min 28 sec) 
Heartbeat CPU  0 instructions:   16000000 cycles:    7988478 heartbeat IPC: 2.00086 cumulative IPC: 2.00288 (Simulation time: 0 hr 0 min 30 sec) 
Heartbeat CPU  0 instructions:   17000003 cycles:    8487058 heartbeat IPC: 2.00570 cumulative IPC: 2.00305 (Simulation time: 0 hr 0 min 31 sec) 
Heartbeat CPU  0 instructions:   18000003 cycles:    8986709 heartbeat IPC: 2.00140 cumulative IPC: 2.00296 (Simulation time: 0 hr 0 min 33 sec) 
Heartbeat CPU  0 instructions:   19000003 cycles:    9486238 heartbeat IPC: 2.00189 cumulative IPC: 2.00290 (Simulation time: 0 hr 0 min 35 sec) 
Heartbeat CPU  0 instructions:   20000000 cycles:    9985177 heartbeat IPC: 2.00425 cumulative IPC: 2.00297 (Simulation time: 0 hr 0 min 37 sec) 
Heartbeat CPU  0 instructions:   21000000 cycles:   10485519 heartbeat IPC: 1.99863 cumulative IPC: 2.00276 (Simulation time: 0 hr 0 min 38 sec) 
Heartbeat CPU  0 instructions:   22000003 cycles:   10983625 heartbeat IPC: 2.00761 cumulative IPC: 2.00298 (Simulation time: 0 hr 0 min 40 sec) 
Heartbeat CPU  0 instructions:   23000003 cycles:   11484372 heartbeat IPC: 1.99702 cumulative IPC: 2.00272 (Simulation time: 0 hr 0 min 42 sec) 
Heartbeat CPU  0 instructions:   24000000 cycles:   11982670 heartbeat IPC: 2.00683 cumulative IPC: 2.00289 (Simulation time: 0 hr 0 min 44 sec) 
Heartbeat CPU  0 instructions:   25000002 cycles:   12483729 heartbeat IPC: 1.99578 cumulative IPC: 2.00261 (Simulation time: 0 hr 0 min 46 sec) 
Heartbeat CPU  0 instructions:   26000000 cycles:   12981788 heartbeat IPC: 2.00779 cumulative IPC: 2.00281 (Simulation time: 0 hr 0 min 47 sec) 
Heartbeat CPU  0 instructions:   27000000 cycles:   13483540 heartbeat IPC: 1.99302 cumulative IPC: 2.00244 (Simulation time: 0 hr 0 min 49 sec) 
Heartbeat CPU  0 instructions:   28000000 cycles:   13980825 heartbeat IPC: 2.01092 cumulative IPC: 2.00274 (Simulation time: 0 hr 0 min 51 sec) 
Heartbeat CPU  0 instructions:   29000000 cycles:   14481506 heartbeat IPC: 1.99728 cumulative IPC: 2.00255 (Simulation time: 0 hr 0 min 53 sec) 
Heartbeat CPU  0 instructions:   30000000 cycles:   14979283 heartbeat IPC: 2.00893 cumulative IPC: 2.00277 (Simulation time: 0 hr 0 min 54 sec) 
Heartbeat CPU  0 instructions:   31000002 cycles:   15479037 heartbeat IPC: 2.00099 cumulative IPC: 2.00271 (Simulation time: 0 hr 0 min 56 sec) 
Heartbeat CPU  0 instructions:   32000000 cycles:   15977492 heartbeat IPC: 2.00620 cumulative IPC: 2.00282 (Simulation time: 0 hr 0 min 58 sec) 
Heartbeat CPU  0 instructions:   33000000 cycles:   16476455 heartbeat IPC: 2.00416 cumulative IPC: 2.00286 (Simulation time: 0 hr 1 min 0 sec) 
Heartbeat CPU  0 instructions:   34000002 cycles:   16975563 heartbeat IPC: 2.00358 cumulative IPC: 2.00288 (Simulation time: 0 hr 1 min 2 sec) 
Heartbeat CPU  0 instructions:   35000002 cycles:   17473907 heartbeat IPC: 2.00665 cumulative IPC: 2.00299 (Simulation time: 0 hr 1 min 3 sec) 
Heartbeat CPU  0 instructions:   36000000 cycles:   17973689 heartbeat IPC: 2.00087 cumulative IPC: 2.00293 (Simulation time: 0 hr 1 min 5 sec) 
Heartbeat CPU  0 instructions:   37000000 cycles:   18471357 heartbeat IPC: 2.00937 cumulative IPC: 2.00310 (Simulation time: 0 hr 1 min 7 sec) 
Heartbeat CPU  0 instructions:   38000000 cycles:   18971891 heartbeat IPC: 1.99787 cumulative IPC: 2.00296 (Simulation time: 0 hr 1 min 9 sec) 
Heartbeat CPU  0 instructions:   39000000 cycles:   19470125 heartbeat IPC: 2.00709 cumulative IPC: 2.00307 (Simulation time: 0 hr 1 min 10 sec) 
Heartbeat CPU  0 instructions:   40000000 cycles:   19971020 heartbeat IPC: 1.99643 cumulative IPC: 2.00290 (Simulation time: 0 hr 1 min 12 sec) 
Heartbeat CPU  0 instructions:   41000000 cycles:   20468927 heartbeat IPC: 2.00841 cumulative IPC: 2.00304 (Simulation time: 0 hr 1 min 14 sec) 
Heartbeat CPU  0 instructions:   42000000 cycles:   20970572 heartbeat IPC: 1.99344 cumulative IPC: 2.00281 (Simulation time: 0 hr 1 min 16 sec) 
Heartbeat CPU  0 instructions:   43000003 cycles:   21468184 heartbeat IPC: 2.00960 cumulative IPC: 2.00296 (Simulation time: 0 hr 1 min 17 sec) 
Heartbeat CPU  0 instructions:   44000000 cycles:   21969238 heartbeat IPC: 1.99579 cumulative IPC: 2.00280 (Simulation time: 0 hr 1 min 19 sec) 
Heartbeat CPU  0 instructions:   45000003 cycles:   22467465 heartbeat IPC: 2.00712 cumulative IPC: 2.00290 (Simulation time: 0 hr 1 min 21 sec) 
Heartbeat CPU  0 instructions:   46000003 cycles:   22967489 heartbeat IPC: 1.99990 cumulative IPC: 2.00283 (Simulation time: 0 hr 1 min 23 sec) 
Heartbeat CPU  0 instructions:   47000001 cycles:   23466475 heartbeat IPC: 2.00406 cumulative IPC: 2.00286 (Simulation time: 0 hr 1 min 25 sec) 
Heartbeat CPU  0 instructions:   48000000 cycles:   23966080 heartbeat IPC: 2.00158 cumulative IPC: 2.00283 (Simulation time: 0 hr 1 min 26 sec) 
Heartbeat CPU  0 instructions:   49000000 cycles:   24465373 heartbeat IPC: 2.00283 cumulative IPC: 2.00283 (Simulation time: 0 hr 1 min 28 sec) 
Heartbeat CPU  0 instructions:   50000000 cycles:   24963843 heartbeat IPC: 2.00614 cumulative IPC: 2.00290 (Simulation time: 0 hr 1 min 30 sec) 
Heartbeat CPU  0 instructions:   51000003 cycles:   25463561 heartbeat IPC: 2.00113 cumulative IPC: 2.00286 (Simulation time: 0 hr 1 min 32 sec) 
Heartbeat CPU  0 instructions:   52000000 cycles:   25961156 heartbeat IPC: 2.00966 cumulative IPC: 2.00299 (Simulation time: 0 hr 1 min 33 sec) 
Heartbeat CPU  0 instructions:   53000001 cycles:   26461588 heartbeat IPC: 1.99828 cumulative IPC: 2.00290 (Simulation time: 0 hr 1 min 35 sec) 
Heartbeat CPU  0 instructions:   54000002 cycles:   26959384 heartbeat IPC: 2.00886 cumulative IPC: 2.00301 (Simulation time: 0 hr 1 min 37 sec) 
Heartbeat CPU  0 instructions:   55000001 cycles:   27460056 heartbeat IPC: 1.99731 cumulative IPC: 2.00291 (Simulation time: 0 hr 1 min 39 sec) 
Heartbeat CPU  0 instructions:   56000000 cycles:   27957577 heartbeat IPC: 2.00996 cumulative IPC: 2.00303 (Simulation time: 0 hr 1 min 41 sec) 
Heartbeat CPU  0 instructions:   57000002 cycles:   28458615 heartbeat IPC: 1.99586 cumulative IPC: 2.00291 (Simulation time: 0 hr 1 min 42 sec) 
Heartbeat CPU  0 instructions:   58000001 cycles:   28955444 heartbeat IPC: 2.01276 cumulative IPC: 2.00308 (Simulation time: 0 hr 1 min 44 sec) 
Heartbeat CPU  0 instructions:   59000003 cycles:   29456279 heartbeat IPC: 1.99667 cumulative IPC: 2.00297 (Simulation time: 0 hr 1 min 46 sec) 
Heartbeat CPU  0 instructions:   60000000 cycles:   29954529 heartbeat IPC: 2.00702 cumulative IPC: 2.00304 (Simulation time: 0 hr 1 min 48 sec) 
Heartbeat CPU  0 instructions:   61000003 cycles:   30454820 heartbeat IPC: 1.99884 cumulative IPC: 2.00297 (Simulation time: 0 hr 1 min 49 sec) 
Heartbeat CPU  0 instructions:   62000001 cycles:   30953861 heartbeat IPC: 2.00384 cumulative IPC: 2.00298 (Simulation time: 0 hr 1 min 51 sec) 
Heartbeat CPU  0 instructions:   63000003 cycles:   31453468 heartbeat IPC: 2.00158 cumulative IPC: 2.00296 (Simulation time: 0 hr 1 min 53 sec) 
Heartbeat CPU  0 instructions:   64000000 cycles:   31953140 heartbeat IPC: 2.00131 cumulative IPC: 2.00293 (Simulation time: 0 hr 1 min 55 sec) 
Heartbeat CPU  0 instructions:   65000001 cycles:   32452030 heartbeat IPC: 2.00445 cumulative IPC: 2.00296 (Simulation time: 0 hr 1 min 57 sec) 
Heartbeat CPU  0 instructions:   66000000 cycles:   32952411 heartbeat IPC: 1.99848 cumulative IPC: 2.00289 (Simulation time: 0 hr 1 min 58 sec) 
Heartbeat CPU  0 instructions:   67000003 cycles:   33450699 heartbeat IPC: 2.00688 cumulative IPC: 2.00295 (Simulation time: 0 hr 2 min 0 sec) 
Heartbeat CPU  0 instructions:   68000000 cycles:   33951842 heartbeat IPC: 1.99543 cumulative IPC: 2.00284 (Simulation time: 0 hr 2 min 2 sec) 
Heartbeat CPU  0 instructions:   69000002 cycles:   34450528 heartbeat IPC: 2.00527 cumulative IPC: 2.00287 (Simulation time: 0 hr 2 min 4 sec) 
Heartbeat CPU  0 instructions:   70000003 cycles:   34951028 heartbeat IPC: 1.99800 cumulative IPC: 2.00280 (Simulation time: 0 hr 2 min 5 sec) 
Heartbeat CPU  0 instructions:   71000001 cycles:   35448723 heartbeat IPC: 2.00926 cumulative IPC: 2.00289 (Simulation time: 0 hr 2 min 7 sec) 
Heartbeat CPU  0 instructions:   72000000 cycles:   35949814 heartbeat IPC: 1.99564 cumulative IPC: 2.00279 (Simulation time: 0 hr 2 min 9 sec) 
Heartbeat CPU  0 instructions:   73000001 cycles:   36446860 heartbeat IPC: 2.01189 cumulative IPC: 2.00292 (Simulation time: 0 hr 2 min 11 sec) 
Heartbeat CPU  0 instructions:   74000002 cycles:   36947126 heartbeat IPC: 1.99894 cumulative IPC: 2.00286 (Simulation time: 0 hr 2 min 13 sec) 
Heartbeat CPU  0 instructions:   75000000 cycles:   37444821 heartbeat IPC: 2.00926 cumulative IPC: 2.00295 (Simulation time: 0 hr 2 min 14 sec) 
Heartbeat CPU  0 instructions:   76000000 cycles:   37944309 heartbeat IPC: 2.00205 cumulative IPC: 2.00294 (Simulation time: 0 hr 2 min 16 sec) 
Heartbeat CPU  0 instructions:   77000003 cycles:   38442775 heartbeat IPC: 2.00616 cumulative IPC: 2.00298 (Simulation time: 0 hr 2 min 18 sec) 
Heartbeat CPU  0 instructions:   78000000 cycles:   38941624 heartbeat IPC: 2.00461 cumulative IPC: 2.00300 (Simulation time: 0 hr 2 min 20 sec) 
Heartbeat CPU  0 instructions:   79000002 cycles:   39440847 heartbeat IPC: 2.00312 cumulative IPC: 2.00300 (Simulation time: 0 hr 2 min 21 sec) 
Heartbeat CPU  0 instructions:   80000000 cycles:   39939626 heartbeat IPC: 2.00489 cumulative IPC: 2.00302 (Simulation time: 0 hr 2 min 23 sec) 
Heartbeat CPU  0 instructions:   81000002 cycles:   40439965 heartbeat IPC: 1.99865 cumulative IPC: 2.00297 (Simulation time: 0 hr 2 min 25 sec) 
Heartbeat CPU  0 instructions:   82000002 cycles:   40938056 heartbeat IPC: 2.00767 cumulative IPC: 2.00303 (Simulation time: 0 hr 2 min 27 sec) 
Heartbeat CPU  0 instructions:   83000000 cycles:   41439062 heartbeat IPC: 1.99598 cumulative IPC: 2.00294 (Simulation time: 0 hr 2 min 29 sec) 
Heartbeat CPU  0 instructions:   84000000 cycles:   41937756 heartbeat IPC: 2.00524 cumulative IPC: 2.00297 (Simulation time: 0 hr 2 min 30 sec) 
Heartbeat CPU  0 instructions:   85000000 cycles:   42439009 heartbeat IPC: 1.99500 cumulative IPC: 2.00287 (Simulation time: 0 hr 2 min 32 sec) 
Heartbeat CPU  0 instructions:   86000003 cycles:   42936938 heartbeat IPC: 2.00832 cumulative IPC: 2.00294 (Simulation time: 0 hr 2 min 34 sec) 
Heartbeat CPU  0 instructions:   87000000 cycles:   43438353 heartbeat IPC: 1.99435 cumulative IPC: 2.00284 (Simulation time: 0 hr 2 min 36 sec) 
Heartbeat CPU  0 instructions:   88000000 cycles:   43935717 heartbeat IPC: 2.01060 cumulative IPC: 2.00293 (Simulation time: 0 hr 2 min 37 sec) 
Heartbeat CPU  0 instructions:   89000003 cycles:   44436623 heartbeat IPC: 1.99639 cumulative IPC: 2.00285 (Simulation time: 0 hr 2 min 39 sec) 
Heartbeat CPU  0 instructions:   90000000 cycles:   44934740 heartbeat IPC: 2.00755 cumulative IPC: 2.00290 (Simulation time: 0 hr 2 min 41 sec) 
Heartbeat CPU  0 instructions:   91000000 cycles:   45434275 heartbeat IPC: 2.00186 cumulative IPC: 2.00289 (Simulation time: 0 hr 2 min 43 sec) 
Heartbeat CPU  0 instructions:   92000000 cycles:   45932811 heartbeat IPC: 2.00587 cumulative IPC: 2.00293 (Simulation time: 0 hr 2 min 45 sec) 
Heartbeat CPU  0 instructions:   93000000 cycles:   46431859 heartbeat IPC: 2.00382 cumulative IPC: 2.00294 (Simulation time: 0 hr 2 min 46 sec) 
Heartbeat CPU  0 instructions:   94000000 cycles:   46930952 heartbeat IPC: 2.00363 cumulative IPC: 2.00294 (Simulation time: 0 hr 2 min 48 sec) 
Heartbeat CPU  0 instructions:   95000000 cycles:   47429098 heartbeat IPC: 2.00744 cumulative IPC: 2.00299 (Simulation time: 0 hr 2 min 50 sec) 
Heartbeat CPU  0 instructions:   96000000 cycles:   47929085 heartbeat IPC: 2.00005 cumulative IPC: 2.00296 (Simulation time: 0 hr 2 min 52 sec) 
Heartbeat CPU  0 instructions:   97000000 cycles:   48427035 heartbeat IPC: 2.00823 cumulative IPC: 2.00301 (Simulation time: 0 hr 2 min 53 sec) 
Heartbeat CPU  0 instructions:   98000001 cycles:   48927657 heartbeat IPC: 1.99752 cumulative IPC: 2.00296 (Simulation time: 0 hr 2 min 55 sec) 
Heartbeat CPU  0 instructions:   99000001 cycles:   49425403 heartbeat IPC: 2.00906 cumulative IPC: 2.00302 (Simulation time: 0 hr 2 min 57 sec) 
Heartbeat CPU  0 instructions:  100000000 cycles:   49925873 heartbeat IPC: 1.99812 cumulative IPC: 2.00297 (Simulation time: 0 hr 2 min 59 sec) 

Warmup complete CPU  0 instructions:  100000001 cycles:   49925874 (Simulation time: 0 hr 2 min 59 sec) 

Heartbeat CPU  0 instructions:  101000003 cycles:   51376141 heartbeat IPC: 0.68953 cumulative IPC: 0.68953 (Simulation time: 0 hr 3 min 1 sec) 
Heartbeat CPU  0 instructions:  102000003 cycles:   52807362 heartbeat IPC: 0.69870 cumulative IPC: 0.69409 (Simulation time: 0 hr 3 min 4 sec) 
Heartbeat CPU  0 instructions:  103000002 cycles:   54188512 heartbeat IPC: 0.72403 cumulative IPC: 0.70379 (Simulation time: 0 hr 3 min 6 sec) 
Heartbeat CPU  0 instructions:  104000000 cycles:   55550603 heartbeat IPC: 0.73416 cumulative IPC: 0.71115 (Simulation time: 0 hr 3 min 9 sec) 
Heartbeat CPU  0 instructions:  105000000 cycles:   56923325 heartbeat IPC: 0.72848 cumulative IPC: 0.71455 (Simulation time: 0 hr 3 min 11 sec) 
Heartbeat CPU  0 instructions:  106000003 cycles:   58318780 heartbeat IPC: 0.71661 cumulative IPC: 0.71489 (Simulation time: 0 hr 3 min 14 sec) 
Heartbeat CPU  0 instructions:  107000000 cycles:   59734805 heartbeat IPC: 0.70620 cumulative IPC: 0.71364 (Simulation time: 0 hr 3 min 16 sec) 
Heartbeat CPU  0 instructions:  108000000 cycles:   61161567 heartbeat IPC: 0.70089 cumulative IPC: 0.71202 (Simulation time: 0 hr 3 min 18 sec) 
Heartbeat CPU  0 instructions:  109000000 cycles:   62558055 heartbeat IPC: 0.71608 cumulative IPC: 0.71247 (Simulation time: 0 hr 3 min 21 sec) 
Heartbeat CPU  0 instructions:  110000001 cycles:   64022380 heartbeat IPC: 0.68291 cumulative IPC: 0.70940 (Simulation time: 0 hr 3 min 23 sec) 
Heartbeat CPU  0 instructions:  111000001 cycles:   65522496 heartbeat IPC: 0.66662 cumulative IPC: 0.70528 (Simulation time: 0 hr 3 min 26 sec) 
Heartbeat CPU  0 instructions:  112000000 cycles:   66920925 heartbeat IPC: 0.71509 cumulative IPC: 0.70609 (Simulation time: 0 hr 3 min 28 sec) 
Heartbeat CPU  0 instructions:  113000003 cycles:   68274952 heartbeat IPC: 0.73854 cumulative IPC: 0.70848 (Simulation time: 0 hr 3 min 31 sec) 
Heartbeat CPU  0 instructions:  114000001 cycles:   69662297 heartbeat IPC: 0.72080 cumulative IPC: 0.70935 (Simulation time: 0 hr 3 min 33 sec) 
Heartbeat CPU  0 instructions:  115000003 cycles:   71055907 heartbeat IPC: 0.71756 cumulative IPC: 0.70989 (Simulation time: 0 hr 3 min 36 sec) 
Heartbeat CPU  0 instructions:  116000000 cycles:   72437597 heartbeat IPC: 0.72375 cumulative IPC: 0.71074 (Simulation time: 0 hr 3 min 38 sec) 
Heartbeat CPU  0 instructions:  117000002 cycles:   73850733 heartbeat IPC: 0.70765 cumulative IPC: 0.71056 (Simulation time: 0 hr 3 min 41 sec) 
Heartbeat CPU  0 instructions:  118000003 cycles:   75252479 heartbeat IPC: 0.71340 cumulative IPC: 0.71072 (Simulation time: 0 hr 3 min 43 sec) 
Heartbeat CPU  0 instructions:  119000000 cycles:   76641119 heartbeat IPC: 0.72013 cumulative IPC: 0.71120 (Simulation time: 0 hr 3 min 46 sec) 
Heartbeat CPU  0 instructions:  120000000 cycles:   78027926 heartbeat IPC: 0.72108 cumulative IPC: 0.71169 (Simulation time: 0 hr 3 min 48 sec) 
Heartbeat CPU  0 instructions:  121000000 cycles:   79504115 heartbeat IPC: 0.67742 cumulative IPC: 0.70998 (Simulation time: 0 hr 3 min 51 sec) 
Heartbeat CPU  0 instructions:  122000000 cycles:   80968554 heartbeat IPC: 0.68286 cumulative IPC: 0.70870 (Simulation time: 0 hr 3 min 53 sec) 
Heartbeat CPU  0 instructions:  123000001 cycles:   82343565 heartbeat IPC: 0.72727 cumulative IPC: 0.70949 (Simulation time: 0 hr 3 min 56 sec) 
Heartbeat CPU  0 instructions:  124000000 cycles:   83699807 heartbeat IPC: 0.73733 cumulative IPC: 0.71061 (Simulation time: 0 hr 3 min 58 sec) 
Heartbeat CPU  0 instructions:  125000001 cycles:   85112867 heartbeat IPC: 0.70768 cumulative IPC: 0.71049 (Simulation time: 0 hr 4 min 0 sec) 
Heartbeat CPU  0 instructions:  126000002 cycles:   86469609 heartbeat IPC: 0.73706 cumulative IPC: 0.71148 (Simulation time: 0 hr 4 min 3 sec) 
Heartbeat CPU  0 instructions:  127000000 cycles:   87899338 heartbeat IPC: 0.69943 cumulative IPC: 0.71102 (Simulation time: 0 hr 4 min 5 sec) 
Heartbeat CPU  0 instructions:  128000000 cycles:   89309445 heartbeat IPC: 0.70917 cumulative IPC: 0.71096 (Simulation time: 0 hr 4 min 8 sec) 
Heartbeat CPU  0 instructions:  129000003 cycles:   90697116 heartbeat IPC: 0.72063 cumulative IPC: 0.71129 (Simulation time: 0 hr 4 min 10 sec) 
Heartbeat CPU  0 instructions:  130000000 cycles:   92067281 heartbeat IPC: 0.72984 cumulative IPC: 0.71189 (Simulation time: 0 hr 4 min 13 sec) 
Heartbeat CPU  0 instructions:  131000003 cycles:   93451396 heartbeat IPC: 0.72249 cumulative IPC: 0.71223 (Simulation time: 0 hr 4 min 15 sec) 
Heartbeat CPU  0 instructions:  132000000 cycles:   96042049 heartbeat IPC: 0.38600 cumulative IPC: 0.69390 (Simulation time: 0 hr 4 min 18 sec) 
Heartbeat CPU  0 instructions:  133000001 cycles:   99456459 heartbeat IPC: 0.29288 cumulative IPC: 0.66625 (Simulation time: 0 hr 4 min 21 sec) 
Heartbeat CPU  0 instructions:  134000003 cycles:  101314069 heartbeat IPC: 0.53833 cumulative IPC: 0.66163 (Simulation time: 0 hr 4 min 24 sec) 
Heartbeat CPU  0 instructions:  135000000 cycles:  103254236 heartbeat IPC: 0.51542 cumulative IPC: 0.65631 (Simulation time: 0 hr 4 min 27 sec) 
Heartbeat CPU  0 instructions:  136000000 cycles:  105228573 heartbeat IPC: 0.50650 cumulative IPC: 0.65096 (Simulation time: 0 hr 4 min 29 sec) 
Heartbeat CPU  0 instructions:  137000001 cycles:  107080892 heartbeat IPC: 0.53986 cumulative IPC: 0.64736 (Simulation time: 0 hr 4 min 32 sec) 
Heartbeat CPU  0 instructions:  138000003 cycles:  108792429 heartbeat IPC: 0.58427 cumulative IPC: 0.64553 (Simulation time: 0 hr 4 min 35 sec) 
Heartbeat CPU  0 instructions:  139000000 cycles:  110541435 heartbeat IPC: 0.57175 cumulative IPC: 0.64340 (Simulation time: 0 hr 4 min 37 sec) 
Heartbeat CPU  0 instructions:  140000000 cycles:  112314544 heartbeat IPC: 0.56398 cumulative IPC: 0.64114 (Simulation time: 0 hr 4 min 40 sec) 
Heartbeat CPU  0 instructions:  141000001 cycles:  114243349 heartbeat IPC: 0.51846 cumulative IPC: 0.63746 (Simulation time: 0 hr 4 min 43 sec) 
Heartbeat CPU  0 instructions:  142000003 cycles:  116217905 heartbeat IPC: 0.50644 cumulative IPC: 0.63356 (Simulation time: 0 hr 4 min 45 sec) 
Heartbeat CPU  0 instructions:  143000000 cycles:  118169252 heartbeat IPC: 0.51247 cumulative IPC: 0.63010 (Simulation time: 0 hr 4 min 48 sec) 
Heartbeat CPU  0 instructions:  144000000 cycles:  120075447 heartbeat IPC: 0.52461 cumulative IPC: 0.62723 (Simulation time: 0 hr 4 min 51 sec) 
Heartbeat CPU  0 instructions:  145000001 cycles:  121924117 heartbeat IPC: 0.54093 cumulative IPC: 0.62502 (Simulation time: 0 hr 4 min 54 sec) 
Heartbeat CPU  0 instructions:  146000002 cycles:  123628801 heartbeat IPC: 0.58662 cumulative IPC: 0.62413 (Simulation time: 0 hr 4 min 56 sec) 
Heartbeat CPU  0 instructions:  147000002 cycles:  125303013 heartbeat IPC: 0.59730 cumulative IPC: 0.62353 (Simulation time: 0 hr 4 min 59 sec) 
Heartbeat CPU  0 instructions:  148000000 cycles:  126909685 heartbeat IPC: 0.62240 cumulative IPC: 0.62351 (Simulation time: 0 hr 5 min 1 sec) 
Heartbeat CPU  0 instructions:  149000001 cycles:  128602342 heartbeat IPC: 0.59079 cumulative IPC: 0.62280 (Simulation time: 0 hr 5 min 4 sec) 
Heartbeat CPU  0 instructions:  150000002 cycles:  130387089 heartbeat IPC: 0.56030 cumulative IPC: 0.62142 (Simulation time: 0 hr 5 min 7 sec) 
Heartbeat CPU  0 instructions:  151000002 cycles:  132191412 heartbeat IPC: 0.55422 cumulative IPC: 0.61994 (Simulation time: 0 hr 5 min 9 sec) 
Heartbeat CPU  0 instructions:  152000000 cycles:  134046860 heartbeat IPC: 0.53895 cumulative IPC: 0.61816 (Simulation time: 0 hr 5 min 12 sec) 
Heartbeat CPU  0 instructions:  153000002 cycles:  135903693 heartbeat IPC: 0.53855 cumulative IPC: 0.61644 (Simulation time: 0 hr 5 min 15 sec) 
Heartbeat CPU  0 instructions:  154000002 cycles:  137724392 heartbeat IPC: 0.54924 cumulative IPC: 0.61504 (Simulation time: 0 hr 5 min 17 sec) 
Heartbeat CPU  0 instructions:  155000001 cycles:  139532134 heartbeat IPC: 0.55318 cumulative IPC: 0.61380 (Simulation time: 0 hr 5 min 20 sec) 
Heartbeat CPU  0 instructions:  156000000 cycles:  141350712 heartbeat IPC: 0.54988 cumulative IPC: 0.61252 (Simulation time: 0 hr 5 min 23 sec) 
Heartbeat CPU  0 instructions:  157000002 cycles:  143073826 heartbeat IPC: 0.58035 cumulative IPC: 0.61193 (Simulation time: 0 hr 5 min 25 sec) 
Heartbeat CPU  0 instructions:  158000000 cycles:  144887864 heartbeat IPC: 0.55126 cumulative IPC: 0.61077 (Simulation time: 0 hr 5 min 28 sec) 
Heartbeat CPU  0 instructions:  159000003 cycles:  146649427 heartbeat IPC: 0.56768 cumulative IPC: 0.60999 (Simulation time: 0 hr 5 min 31 sec) 
Heartbeat CPU  0 instructions:  160000000 cycles:  148473858 heartbeat IPC: 0.54811 cumulative IPC: 0.60884 (Simulation time: 0 hr 5 min 33 sec) 
Heartbeat CPU  0 instructions:  161000000 cycles:  150208478 heartbeat IPC: 0.57650 cumulative IPC: 0.60828 (Simulation time: 0 hr 5 min 36 sec) 
Heartbeat CPU  0 instructions:  162000001 cycles:  151855588 heartbeat IPC: 0.60712 cumulative IPC: 0.60826 (Simulation time: 0 hr 5 min 38 sec) 
Heartbeat CPU  0 instructions:  163000001 cycles:  153636680 heartbeat IPC: 0.56145 cumulative IPC: 0.60746 (Simulation time: 0 hr 5 min 41 sec) 
Heartbeat CPU  0 instructions:  164000000 cycles:  155390044 heartbeat IPC: 0.57033 cumulative IPC: 0.60684 (Simulation time: 0 hr 5 min 44 sec) 
Heartbeat CPU  0 instructions:  165000000 cycles:  157217082 heartbeat IPC: 0.54733 cumulative IPC: 0.60583 (Simulation time: 0 hr 5 min 46 sec) 
Heartbeat CPU  0 instructions:  166000001 cycles:  158931786 heartbeat IPC: 0.58319 cumulative IPC: 0.60547 (Simulation time: 0 hr 5 min 49 sec) 
Heartbeat CPU  0 instructions:  167000003 cycles:  160722666 heartbeat IPC: 0.55839 cumulative IPC: 0.60471 (Simulation time: 0 hr 5 min 52 sec) 
Heartbeat CPU  0 instructions:  168000000 cycles:  162517617 heartbeat IPC: 0.55712 cumulative IPC: 0.60395 (Simulation time: 0 hr 5 min 54 sec) 
Heartbeat CPU  0 instructions:  169000001 cycles:  164454026 heartbeat IPC: 0.51642 cumulative IPC: 0.60247 (Simulation time: 0 hr 5 min 57 sec) 
Heartbeat CPU  0 instructions:  170000001 cycles:  166237970 heartbeat IPC: 0.56056 cumulative IPC: 0.60183 (Simulation time: 0 hr 6 min 0 sec) 
Heartbeat CPU  0 instructions:  171000001 cycles:  168059525 heartbeat IPC: 0.54898 cumulative IPC: 0.60101 (Simulation time: 0 hr 6 min 2 sec) 
Heartbeat CPU  0 instructions:  172000000 cycles:  169846213 heartbeat IPC: 0.55969 cumulative IPC: 0.60040 (Simulation time: 0 hr 6 min 5 sec) 
Heartbeat CPU  0 instructions:  173000000 cycles:  171730783 heartbeat IPC: 0.53063 cumulative IPC: 0.59932 (Simulation time: 0 hr 6 min 8 sec) 
Heartbeat CPU  0 instructions:  174000001 cycles:  173408034 heartbeat IPC: 0.59621 cumulative IPC: 0.59928 (Simulation time: 0 hr 6 min 11 sec) 
Heartbeat CPU  0 instructions:  175000002 cycles:  175119345 heartbeat IPC: 0.58435 cumulative IPC: 0.59907 (Simulation time: 0 hr 6 min 13 sec) 
Heartbeat CPU  0 instructions:  176000000 cycles:  176929713 heartbeat IPC: 0.55237 cumulative IPC: 0.59841 (Simulation time: 0 hr 6 min 16 sec) 
Heartbeat CPU  0 instructions:  177000001 cycles:  178750420 heartbeat IPC: 0.54924 cumulative IPC: 0.59771 (Simulation time: 0 hr 6 min 18 sec) 
Heartbeat CPU  0 instructions:  178000001 cycles:  180547705 heartbeat IPC: 0.55639 cumulative IPC: 0.59714 (Simulation time: 0 hr 6 min 21 sec) 
Heartbeat CPU  0 instructions:  179000002 cycles:  182261033 heartbeat IPC: 0.58366 cumulative IPC: 0.59697 (Simulation time: 0 hr 6 min 24 sec) 
Heartbeat CPU  0 instructions:  180000000 cycles:  184061753 heartbeat IPC: 0.55533 cumulative IPC: 0.59641 (Simulation time: 0 hr 6 min 26 sec) 
Heartbeat CPU  0 instructions:  181000000 cycles:  185923930 heartbeat IPC: 0.53701 cumulative IPC: 0.59560 (Simulation time: 0 hr 6 min 29 sec) 
Heartbeat CPU  0 instructions:  182000002 cycles:  187807445 heartbeat IPC: 0.53092 cumulative IPC: 0.59471 (Simulation time: 0 hr 6 min 32 sec) 
Heartbeat CPU  0 instructions:  183000002 cycles:  189686558 heartbeat IPC: 0.53217 cumulative IPC: 0.59387 (Simulation time: 0 hr 6 min 34 sec) 
Heartbeat CPU  0 instructions:  184000000 cycles:  191476378 heartbeat IPC: 0.55871 cumulative IPC: 0.59343 (Simulation time: 0 hr 6 min 37 sec) 
Heartbeat CPU  0 instructions:  185000003 cycles:  193302804 heartbeat IPC: 0.54752 cumulative IPC: 0.59284 (Simulation time: 0 hr 6 min 40 sec) 
Heartbeat CPU  0 instructions:  186000000 cycles:  195107278 heartbeat IPC: 0.55418 cumulative IPC: 0.59236 (Simulation time: 0 hr 6 min 42 sec) 
Heartbeat CPU  0 instructions:  187000000 cycles:  196888448 heartbeat IPC: 0.56143 cumulative IPC: 0.59199 (Simulation time: 0 hr 6 min 45 sec) 
Heartbeat CPU  0 instructions:  188000000 cycles:  198588758 heartbeat IPC: 0.58813 cumulative IPC: 0.59194 (Simulation time: 0 hr 6 min 48 sec) 
Heartbeat CPU  0 instructions:  189000003 cycles:  200344161 heartbeat IPC: 0.56967 cumulative IPC: 0.59168 (Simulation time: 0 hr 6 min 50 sec) 
Heartbeat CPU  0 instructions:  190000000 cycles:  202087548 heartbeat IPC: 0.57359 cumulative IPC: 0.59148 (Simulation time: 0 hr 6 min 53 sec) 
Heartbeat CPU  0 instructions:  191000000 cycles:  203910825 heartbeat IPC: 0.54846 cumulative IPC: 0.59097 (Simulation time: 0 hr 6 min 56 sec) 
Heartbeat CPU  0 instructions:  192000000 cycles:  205727332 heartbeat IPC: 0.55051 cumulative IPC: 0.59050 (Simulation time: 0 hr 6 min 58 sec) 
Heartbeat CPU  0 instructions:  193000000 cycles:  207512951 heartbeat IPC: 0.56003 cumulative IPC: 0.59015 (Simulation time: 0 hr 7 min 1 sec) 
Heartbeat CPU  0 instructions:  194000000 cycles:  209304709 heartbeat IPC: 0.55811 cumulative IPC: 0.58979 (Simulation time: 0 hr 7 min 4 sec) 
Heartbeat CPU  0 instructions:  195000003 cycles:  212368260 heartbeat IPC: 0.32642 cumulative IPC: 0.58482 (Simulation time: 0 hr 7 min 7 sec) 
Heartbeat CPU  0 instructions:  196000000 cycles:  216141362 heartbeat IPC: 0.26503 cumulative IPC: 0.57756 (Simulation time: 0 hr 7 min 10 sec) 
Heartbeat CPU  0 instructions:  197000000 cycles:  219914956 heartbeat IPC: 0.26500 cumulative IPC: 0.57062 (Simulation time: 0 hr 7 min 14 sec) 
Heartbeat CPU  0 instructions:  198000000 cycles:  223395057 heartbeat IPC: 0.28735 cumulative IPC: 0.56494 (Simulation time: 0 hr 7 min 17 sec) 
Heartbeat CPU  0 instructions:  199000001 cycles:  226748914 heartbeat IPC: 0.29816 cumulative IPC: 0.55988 (Simulation time: 0 hr 7 min 20 sec) 
Heartbeat CPU  0 instructions:  200000000 cycles:  230189016 heartbeat IPC: 0.29069 cumulative IPC: 0.55474 (Simulation time: 0 hr 7 min 23 sec) 
Heartbeat CPU  0 instructions:  201000002 cycles:  233501269 heartbeat IPC: 0.30191 cumulative IPC: 0.55018 (Simulation time: 0 hr 7 min 26 sec) 
Heartbeat CPU  0 instructions:  202000002 cycles:  236896981 heartbeat IPC: 0.29449 cumulative IPC: 0.54554 (Simulation time: 0 hr 7 min 30 sec) 
Heartbeat CPU  0 instructions:  203000003 cycles:  240326647 heartbeat IPC: 0.29157 cumulative IPC: 0.54096 (Simulation time: 0 hr 7 min 33 sec) 
Heartbeat CPU  0 instructions:  204000000 cycles:  243712325 heartbeat IPC: 0.29536 cumulative IPC: 0.53667 (Simulation time: 0 hr 7 min 36 sec) 
Heartbeat CPU  0 instructions:  205000001 cycles:  247015549 heartbeat IPC: 0.30273 cumulative IPC: 0.53275 (Simulation time: 0 hr 7 min 39 sec) 
Heartbeat CPU  0 instructions:  206000003 cycles:  250365572 heartbeat IPC: 0.29851 cumulative IPC: 0.52884 (Simulation time: 0 hr 7 min 42 sec) 
Heartbeat CPU  0 instructions:  207000001 cycles:  253648127 heartbeat IPC: 0.30464 cumulative IPC: 0.52522 (Simulation time: 0 hr 7 min 45 sec) 
Heartbeat CPU  0 instructions:  208000000 cycles:  256961983 heartbeat IPC: 0.30176 cumulative IPC: 0.52165 (Simulation time: 0 hr 7 min 49 sec) 
Heartbeat CPU  0 instructions:  209000000 cycles:  260206425 heartbeat IPC: 0.30822 cumulative IPC: 0.51836 (Simulation time: 0 hr 7 min 52 sec) 
Heartbeat CPU  0 instructions:  210000003 cycles:  263529830 heartbeat IPC: 0.30090 cumulative IPC: 0.51497 (Simulation time: 0 hr 7 min 55 sec) 
Heartbeat CPU  0 instructions:  211000002 cycles:  266850088 heartbeat IPC: 0.30118 cumulative IPC: 0.51170 (Simulation time: 0 hr 7 min 58 sec) 
Heartbeat CPU  0 instructions:  212000000 cycles:  270143852 heartbeat IPC: 0.30360 cumulative IPC: 0.50859 (Simulation time: 0 hr 8 min 1 sec) 
Heartbeat CPU  0 instructions:  213000001 cycles:  273587261 heartbeat IPC: 0.29041 cumulative IPC: 0.50523 (Simulation time: 0 hr 8 min 4 sec) 
Heartbeat CPU  0 instructions:  214000001 cycles:  276942030 heartbeat IPC: 0.29808 cumulative IPC: 0.50217 (Simulation time: 0 hr 8 min 8 sec) 
Heartbeat CPU  0 instructions:  215000002 cycles:  280421075 heartbeat IPC: 0.28744 cumulative IPC: 0.49893 (Simulation time: 0 hr 8 min 11 sec) 
Heartbeat CPU  0 instructions:  216000000 cycles:  283875958 heartbeat IPC: 0.28944 cumulative IPC: 0.49583 (Simulation time: 0 hr 8 min 14 sec) 
Heartbeat CPU  0 instructions:  217000003 cycles:  287197275 heartbeat IPC: 0.30109 cumulative IPC: 0.49311 (Simulation time: 0 hr 8 min 17 sec) 
Heartbeat CPU  0 instructions:  218000003 cycles:  290633788 heartbeat IPC: 0.29099 cumulative IPC: 0.49022 (Simulation time: 0 hr 8 min 21 sec) 
Heartbeat CPU  0 instructions:  219000003 cycles:  294049686 heartbeat IPC: 0.29275 cumulative IPC: 0.48746 (Simulation time: 0 hr 8 min 24 sec) 
Heartbeat CPU  0 instructions:  220000000 cycles:  297499302 heartbeat IPC: 0.28989 cumulative IPC: 0.48470 (Simulation time: 0 hr 8 min 27 sec) 
Heartbeat CPU  0 instructions:  221000003 cycles:  300722013 heartbeat IPC: 0.31030 cumulative IPC: 0.48246 (Simulation time: 0 hr 8 min 30 sec) 
Heartbeat CPU  0 instructions:  222000002 cycles:  303447533 heartbeat IPC: 0.36690 cumulative IPC: 0.48122 (Simulation time: 0 hr 8 min 34 sec) 
Heartbeat CPU  0 instructions:  223000002 cycles:  306130021 heartbeat IPC: 0.37279 cumulative IPC: 0.48009 (Simulation time: 0 hr 8 min 37 sec) 
Heartbeat CPU  0 instructions:  224000000 cycles:  308658281 heartbeat IPC: 0.39553 cumulative IPC: 0.47926 (Simulation time: 0 hr 8 min 40 sec) 
Heartbeat CPU  0 instructions:  225000000 cycles:  311146478 heartbeat IPC: 0.40190 cumulative IPC: 0.47852 (Simulation time: 0 hr 8 min 43 sec) 
Heartbeat CPU  0 instructions:  226000003 cycles:  313520655 heartbeat IPC: 0.42120 cumulative IPC: 0.47801 (Simulation time: 0 hr 8 min 46 sec) 
Heartbeat CPU  0 instructions:  227000001 cycles:  315905382 heartbeat IPC: 0.41933 cumulative IPC: 0.47748 (Simulation time: 0 hr 8 min 49 sec) 
Heartbeat CPU  0 instructions:  228000000 cycles:  318333701 heartbeat IPC: 0.41181 cumulative IPC: 0.47689 (Simulation time: 0 hr 8 min 52 sec) 
Heartbeat CPU  0 instructions:  229000000 cycles:  320800759 heartbeat IPC: 0.40534 cumulative IPC: 0.47623 (Simulation time: 0 hr 8 min 55 sec) 
Heartbeat CPU  0 instructions:  230000000 cycles:  323195838 heartbeat IPC: 0.41752 cumulative IPC: 0.47572 (Simulation time: 0 hr 8 min 58 sec) 
Heartbeat CPU  0 instructions:  231000003 cycles:  325677266 heartbeat IPC: 0.40299 cumulative IPC: 0.47507 (Simulation time: 0 hr 9 min 2 sec) 
Heartbeat CPU  0 instructions:  232000000 cycles:  328103948 heartbeat IPC: 0.41208 cumulative IPC: 0.47452 (Simulation time: 0 hr 9 min 5 sec) 
Heartbeat CPU  0 instructions:  233000000 cycles:  330546774 heartbeat IPC: 0.40936 cumulative IPC: 0.47395 (Simulation time: 0 hr 9 min 8 sec) 
Heartbeat CPU  0 instructions:  234000000 cycles:  332921574 heartbeat IPC: 0.42109 cumulative IPC: 0.47351 (Simulation time: 0 hr 9 min 11 sec) 
Heartbeat CPU  0 instructions:  235000003 cycles:  335273811 heartbeat IPC: 0.42513 cumulative IPC: 0.47311 (Simulation time: 0 hr 9 min 14 sec) 
Heartbeat CPU  0 instructions:  236000000 cycles:  337784693 heartbeat IPC: 0.39827 cumulative IPC: 0.47245 (Simulation time: 0 hr 9 min 17 sec) 
Heartbeat CPU  0 instructions:  237000000 cycles:  340235983 heartbeat IPC: 0.40795 cumulative IPC: 0.47191 (Simulation time: 0 hr 9 min 20 sec) 
Heartbeat CPU  0 instructions:  238000002 cycles:  342661124 heartbeat IPC: 0.41235 cumulative IPC: 0.47142 (Simulation time: 0 hr 9 min 23 sec) 
Heartbeat CPU  0 instructions:  239000000 cycles:  345107583 heartbeat IPC: 0.40875 cumulative IPC: 0.47090 (Simulation time: 0 hr 9 min 26 sec) 
Heartbeat CPU  0 instructions:  240000000 cycles:  347546698 heartbeat IPC: 0.40998 cumulative IPC: 0.47040 (Simulation time: 0 hr 9 min 29 sec) 
Heartbeat CPU  0 instructions:  241000002 cycles:  349995045 heartbeat IPC: 0.40844 cumulative IPC: 0.46989 (Simulation time: 0 hr 9 min 32 sec) 
Heartbeat CPU  0 instructions:  242000002 cycles:  352394739 heartbeat IPC: 0.41672 cumulative IPC: 0.46947 (Simulation time: 0 hr 9 min 36 sec) 
Heartbeat CPU  0 instructions:  243000001 cycles:  354833081 heartbeat IPC: 0.41011 cumulative IPC: 0.46900 (Simulation time: 0 hr 9 min 39 sec) 
Heartbeat CPU  0 instructions:  244000000 cycles:  357241865 heartbeat IPC: 0.41515 cumulative IPC: 0.46857 (Simulation time: 0 hr 9 min 42 sec) 
Heartbeat CPU  0 instructions:  245000002 cycles:  359669953 heartbeat IPC: 0.41185 cumulative IPC: 0.46813 (Simulation time: 0 hr 9 min 45 sec) 
Heartbeat CPU  0 instructions:  246000003 cycles:  362120423 heartbeat IPC: 0.40809 cumulative IPC: 0.46766 (Simulation time: 0 hr 9 min 48 sec) 
Heartbeat CPU  0 instructions:  247000002 cycles:  364531285 heartbeat IPC: 0.41479 cumulative IPC: 0.46725 (Simulation time: 0 hr 9 min 51 sec) 
Heartbeat CPU  0 instructions:  248000000 cycles:  366973353 heartbeat IPC: 0.40949 cumulative IPC: 0.46681 (Simulation time: 0 hr 9 min 54 sec) 
Heartbeat CPU  0 instructions:  249000000 cycles:  369367942 heartbeat IPC: 0.41761 cumulative IPC: 0.46644 (Simulation time: 0 hr 9 min 57 sec) 
Heartbeat CPU  0 instructions:  250000000 cycles:  371744847 heartbeat IPC: 0.42072 cumulative IPC: 0.46610 (Simulation time: 0 hr 10 min 0 sec) 
Heartbeat CPU  0 instructions:  251000002 cycles:  374167204 heartbeat IPC: 0.41282 cumulative IPC: 0.46570 (Simulation time: 0 hr 10 min 3 sec) 
Heartbeat CPU  0 instructions:  252000000 cycles:  376614855 heartbeat IPC: 0.40855 cumulative IPC: 0.46527 (Simulation time: 0 hr 10 min 6 sec) 
Heartbeat CPU  0 instructions:  253000001 cycles:  379036225 heartbeat IPC: 0.41299 cumulative IPC: 0.46489 (Simulation time: 0 hr 10 min 10 sec) 
Heartbeat CPU  0 instructions:  254000002 cycles:  381469403 heartbeat IPC: 0.41099 cumulative IPC: 0.46449 (Simulation time: 0 hr 10 min 13 sec) 
Heartbeat CPU  0 instructions:  255000001 cycles:  383938550 heartbeat IPC: 0.40500 cumulative IPC: 0.46405 (Simulation time: 0 hr 10 min 16 sec) 
Heartbeat CPU  0 instructions:  256000000 cycles:  386377864 heartbeat IPC: 0.40995 cumulative IPC: 0.46366 (Simulation time: 0 hr 10 min 19 sec) 
Heartbeat CPU  0 instructions:  257000001 cycles:  388763871 heartbeat IPC: 0.41911 cumulative IPC: 0.46335 (Simulation time: 0 hr 10 min 22 sec) 
Heartbeat CPU  0 instructions:  258000001 cycles:  391173626 heartbeat IPC: 0.41498 cumulative IPC: 0.46301 (Simulation time: 0 hr 10 min 25 sec) 
Heartbeat CPU  0 instructions:  259000000 cycles:  393317371 heartbeat IPC: 0.46647 cumulative IPC: 0.46303 (Simulation time: 0 hr 10 min 28 sec) 
Heartbeat CPU  0 instructions:  260000000 cycles:  394999576 heartbeat IPC: 0.59446 cumulative IPC: 0.46367 (Simulation time: 0 hr 10 min 31 sec) 
Heartbeat CPU  0 instructions:  261000000 cycles:  396749229 heartbeat IPC: 0.57154 cumulative IPC: 0.46421 (Simulation time: 0 hr 10 min 33 sec) 
Heartbeat CPU  0 instructions:  262000001 cycles:  398445034 heartbeat IPC: 0.58969 cumulative IPC: 0.46482 (Simulation time: 0 hr 10 min 36 sec) 
Heartbeat CPU  0 instructions:  263000001 cycles:  400127707 heartbeat IPC: 0.59429 cumulative IPC: 0.46545 (Simulation time: 0 hr 10 min 38 sec) 
Heartbeat CPU  0 instructions:  264000000 cycles:  401768074 heartbeat IPC: 0.60962 cumulative IPC: 0.46612 (Simulation time: 0 hr 10 min 41 sec) 
Heartbeat CPU  0 instructions:  265000001 cycles:  403414069 heartbeat IPC: 0.60754 cumulative IPC: 0.46678 (Simulation time: 0 hr 10 min 44 sec) 
Heartbeat CPU  0 instructions:  266000001 cycles:  405053131 heartbeat IPC: 0.61011 cumulative IPC: 0.46744 (Simulation time: 0 hr 10 min 46 sec) 
Heartbeat CPU  0 instructions:  267000002 cycles:  406778807 heartbeat IPC: 0.57948 cumulative IPC: 0.46798 (Simulation time: 0 hr 10 min 49 sec) 
Heartbeat CPU  0 instructions:  268000000 cycles:  409011456 heartbeat IPC: 0.44790 cumulative IPC: 0.46786 (Simulation time: 0 hr 10 min 52 sec) 
Heartbeat CPU  0 instructions:  269000001 cycles:  411273500 heartbeat IPC: 0.44208 cumulative IPC: 0.46769 (Simulation time: 0 hr 10 min 54 sec) 
Heartbeat CPU  0 instructions:  270000000 cycles:  412803440 heartbeat IPC: 0.65362 cumulative IPC: 0.46848 (Simulation time: 0 hr 10 min 57 sec) 
Heartbeat CPU  0 instructions:  271000002 cycles:  414392172 heartbeat IPC: 0.62943 cumulative IPC: 0.46918 (Simulation time: 0 hr 10 min 59 sec) 
Heartbeat CPU  0 instructions:  272000000 cycles:  416084122 heartbeat IPC: 0.59103 cumulative IPC: 0.46974 (Simulation time: 0 hr 11 min 2 sec) 
Heartbeat CPU  0 instructions:  273000003 cycles:  417889548 heartbeat IPC: 0.55389 cumulative IPC: 0.47016 (Simulation time: 0 hr 11 min 5 sec) 
Heartbeat CPU  0 instructions:  274000002 cycles:  419871234 heartbeat IPC: 0.50462 cumulative IPC: 0.47034 (Simulation time: 0 hr 11 min 7 sec) 
Heartbeat CPU  0 instructions:  275000000 cycles:  421735754 heartbeat IPC: 0.53633 cumulative IPC: 0.47067 (Simulation time: 0 hr 11 min 10 sec) 
Heartbeat CPU  0 instructions:  276000000 cycles:  423542087 heartbeat IPC: 0.55361 cumulative IPC: 0.47107 (Simulation time: 0 hr 11 min 13 sec) 
Heartbeat CPU  0 instructions:  277000001 cycles:  425335581 heartbeat IPC: 0.55757 cumulative IPC: 0.47148 (Simulation time: 0 hr 11 min 15 sec) 
Heartbeat CPU  0 instructions:  278000001 cycles:  427508127 heartbeat IPC: 0.46029 cumulative IPC: 0.47142 (Simulation time: 0 hr 11 min 18 sec) 
Heartbeat CPU  0 instructions:  279000003 cycles:  429796992 heartbeat IPC: 0.43690 cumulative IPC: 0.47121 (Simulation time: 0 hr 11 min 21 sec) 
Heartbeat CPU  0 instructions:  280000000 cycles:  431538812 heartbeat IPC: 0.57411 cumulative IPC: 0.47168 (Simulation time: 0 hr 11 min 24 sec) 
Heartbeat CPU  0 instructions:  281000000 cycles:  433080483 heartbeat IPC: 0.64865 cumulative IPC: 0.47239 (Simulation time: 0 hr 11 min 26 sec) 
Heartbeat CPU  0 instructions:  282000002 cycles:  434644189 heartbeat IPC: 0.63951 cumulative IPC: 0.47307 (Simulation time: 0 hr 11 min 29 sec) 
Heartbeat CPU  0 instructions:  283000003 cycles:  436461629 heartbeat IPC: 0.55023 cumulative IPC: 0.47344 (Simulation time: 0 hr 11 min 31 sec) 
Heartbeat CPU  0 instructions:  284000000 cycles:  438448403 heartbeat IPC: 0.50333 cumulative IPC: 0.47359 (Simulation time: 0 hr 11 min 34 sec) 
Heartbeat CPU  0 instructions:  285000001 cycles:  440425424 heartbeat IPC: 0.50581 cumulative IPC: 0.47375 (Simulation time: 0 hr 11 min 37 sec) 
Heartbeat CPU  0 instructions:  286000001 cycles:  442261482 heartbeat IPC: 0.54465 cumulative IPC: 0.47408 (Simulation time: 0 hr 11 min 40 sec) 
Heartbeat CPU  0 instructions:  287000003 cycles:  444057785 heartbeat IPC: 0.55670 cumulative IPC: 0.47446 (Simulation time: 0 hr 11 min 42 sec) 
Heartbeat CPU  0 instructions:  288000000 cycles:  445961093 heartbeat IPC: 0.52540 cumulative IPC: 0.47471 (Simulation time: 0 hr 11 min 45 sec) 
Heartbeat CPU  0 instructions:  289000000 cycles:  448266830 heartbeat IPC: 0.43370 cumulative IPC: 0.47447 (Simulation time: 0 hr 11 min 48 sec) 
Heartbeat CPU  0 instructions:  290000003 cycles:  450372318 heartbeat IPC: 0.47495 cumulative IPC: 0.47447 (Simulation time: 0 hr 11 min 50 sec) 
Heartbeat CPU  0 instructions:  291000002 cycles:  451907189 heartbeat IPC: 0.65152 cumulative IPC: 0.47515 (Simulation time: 0 hr 11 min 53 sec) 
Heartbeat CPU  0 instructions:  292000000 cycles:  453476267 heartbeat IPC: 0.63732 cumulative IPC: 0.47578 (Simulation time: 0 hr 11 min 55 sec) 
Heartbeat CPU  0 instructions:  293000003 cycles:  455163428 heartbeat IPC: 0.59271 cumulative IPC: 0.47626 (Simulation time: 0 hr 11 min 58 sec) 
Heartbeat CPU  0 instructions:  294000000 cycles:  456940879 heartbeat IPC: 0.56260 cumulative IPC: 0.47664 (Simulation time: 0 hr 12 min 1 sec) 
Heartbeat CPU  0 instructions:  295000000 cycles:  458897680 heartbeat IPC: 0.51104 cumulative IPC: 0.47681 (Simulation time: 0 hr 12 min 3 sec) 
Heartbeat CPU  0 instructions:  296000000 cycles:  460843624 heartbeat IPC: 0.51389 cumulative IPC: 0.47698 (Simulation time: 0 hr 12 min 6 sec) 
Heartbeat CPU  0 instructions:  297000000 cycles:  462747776 heartbeat IPC: 0.52517 cumulative IPC: 0.47720 (Simulation time: 0 hr 12 min 9 sec) 
Heartbeat CPU  0 instructions:  298000000 cycles:  464568308 heartbeat IPC: 0.54929 cumulative IPC: 0.47752 (Simulation time: 0 hr 12 min 12 sec) 
Heartbeat CPU  0 instructions:  299000002 cycles:  466727567 heartbeat IPC: 0.46312 cumulative IPC: 0.47745 (Simulation time: 0 hr 12 min 14 sec) 
Heartbeat CPU  0 instructions:  300000000 cycles:  469148055 heartbeat IPC: 0.41314 cumulative IPC: 0.47707 (Simulation time: 0 hr 12 min 17 sec) 
Heartbeat CPU  0 instructions:  301000003 cycles:  470787701 heartbeat IPC: 0.60989 cumulative IPC: 0.47759 (Simulation time: 0 hr 12 min 20 sec) 
Heartbeat CPU  0 instructions:  302000002 cycles:  472327326 heartbeat IPC: 0.64951 cumulative IPC: 0.47822 (Simulation time: 0 hr 12 min 22 sec) 
Heartbeat CPU  0 instructions:  303000000 cycles:  473907772 heartbeat IPC: 0.63273 cumulative IPC: 0.47879 (Simulation time: 0 hr 12 min 25 sec) 
Heartbeat CPU  0 instructions:  304000000 cycles:  475695813 heartbeat IPC: 0.55927 cumulative IPC: 0.47913 (Simulation time: 0 hr 12 min 27 sec) 
Heartbeat CPU  0 instructions:  305000001 cycles:  477696568 heartbeat IPC: 0.49981 cumulative IPC: 0.47923 (Simulation time: 0 hr 12 min 30 sec) 
Heartbeat CPU  0 instructions:  306000000 cycles:  479700720 heartbeat IPC: 0.49896 cumulative IPC: 0.47932 (Simulation time: 0 hr 12 min 33 sec) 
Heartbeat CPU  0 instructions:  307000003 cycles:  481525317 heartbeat IPC: 0.54807 cumulative IPC: 0.47961 (Simulation time: 0 hr 12 min 36 sec) 
Heartbeat CPU  0 instructions:  308000000 cycles:  483347094 heartbeat IPC: 0.54891 cumulative IPC: 0.47990 (Simulation time: 0 hr 12 min 38 sec) 
Heartbeat CPU  0 instructions:  309000003 cycles:  485320313 heartbeat IPC: 0.50679 cumulative IPC: 0.48002 (Simulation time: 0 hr 12 min 41 sec) 
Heartbeat CPU  0 instructions:  310000001 cycles:  487679096 heartbeat IPC: 0.42395 cumulative IPC: 0.47972 (Simulation time: 0 hr 12 min 44 sec) 
Heartbeat CPU  0 instructions:  311000000 cycles:  489641852 heartbeat IPC: 0.50949 cumulative IPC: 0.47986 (Simulation time: 0 hr 12 min 46 sec) 
Heartbeat CPU  0 instructions:  312000000 cycles:  491145487 heartbeat IPC: 0.66506 cumulative IPC: 0.48049 (Simulation time: 0 hr 12 min 49 sec) 
Heartbeat CPU  0 instructions:  313000000 cycles:  492698338 heartbeat IPC: 0.64398 cumulative IPC: 0.48106 (Simulation time: 0 hr 12 min 51 sec) 
Heartbeat CPU  0 instructions:  314000003 cycles:  494481472 heartbeat IPC: 0.56081 cumulative IPC: 0.48138 (Simulation time: 0 hr 12 min 54 sec) 
Heartbeat CPU  0 instructions:  315000000 cycles:  496371838 heartbeat IPC: 0.52900 cumulative IPC: 0.48158 (Simulation time: 0 hr 12 min 57 sec) 
Heartbeat CPU  0 instructions:  316000000 cycles:  498308034 heartbeat IPC: 0.51648 cumulative IPC: 0.48173 (Simulation time: 0 hr 13 min 0 sec) 
Heartbeat CPU  0 instructions:  317000000 cycles:  500238941 heartbeat IPC: 0.51789 cumulative IPC: 0.48189 (Simulation time: 0 hr 13 min 2 sec) 
Heartbeat CPU  0 instructions:  318000003 cycles:  502112718 heartbeat IPC: 0.53368 cumulative IPC: 0.48210 (Simulation time: 0 hr 13 min 5 sec) 
Heartbeat CPU  0 instructions:  319000000 cycles:  503879304 heartbeat IPC: 0.56606 cumulative IPC: 0.48243 (Simulation time: 0 hr 13 min 8 sec) 
Heartbeat CPU  0 instructions:  320000000 cycles:  506174860 heartbeat IPC: 0.43562 cumulative IPC: 0.48219 (Simulation time: 0 hr 13 min 10 sec) 
Heartbeat CPU  0 instructions:  321000003 cycles:  508497748 heartbeat IPC: 0.43050 cumulative IPC: 0.48193 (Simulation time: 0 hr 13 min 13 sec) 
Heartbeat CPU  0 instructions:  322000002 cycles:  510022727 heartbeat IPC: 0.65575 cumulative IPC: 0.48251 (Simulation time: 0 hr 13 min 16 sec) 
Heartbeat CPU  0 instructions:  323000000 cycles:  511549252 heartbeat IPC: 0.65508 cumulative IPC: 0.48308 (Simulation time: 0 hr 13 min 18 sec) 
Heartbeat CPU  0 instructions:  324000000 cycles:  513138232 heartbeat IPC: 0.62933 cumulative IPC: 0.48358 (Simulation time: 0 hr 13 min 21 sec) 
Heartbeat CPU  0 instructions:  325000000 cycles:  514966768 heartbeat IPC: 0.54689 cumulative IPC: 0.48383 (Simulation time: 0 hr 13 min 23 sec) 
Heartbeat CPU  0 instructions:  326000002 cycles:  516923790 heartbeat IPC: 0.51098 cumulative IPC: 0.48394 (Simulation time: 0 hr 13 min 26 sec) 
Heartbeat CPU  0 instructions:  327000000 cycles:  518907393 heartbeat IPC: 0.50413 cumulative IPC: 0.48403 (Simulation time: 0 hr 13 min 29 sec) 
Heartbeat CPU  0 instructions:  328000000 cycles:  520775458 heartbeat IPC: 0.53531 cumulative IPC: 0.48423 (Simulation time: 0 hr 13 min 32 sec) 
Heartbeat CPU  0 instructions:  329000003 cycles:  522564341 heartbeat IPC: 0.55901 cumulative IPC: 0.48451 (Simulation time: 0 hr 13 min 34 sec) 
Heartbeat CPU  0 instructions:  330000000 cycles:  524597388 heartbeat IPC: 0.49187 cumulative IPC: 0.48455 (Simulation time: 0 hr 13 min 37 sec) 
Heartbeat CPU  0 instructions:  331000002 cycles:  526945296 heartbeat IPC: 0.42591 cumulative IPC: 0.48426 (Simulation time: 0 hr 13 min 40 sec) 
Heartbeat CPU  0 instructions:  332000000 cycles:  528874764 heartbeat IPC: 0.51828 cumulative IPC: 0.48439 (Simulation time: 0 hr 13 min 42 sec) 
Heartbeat CPU  0 instructions:  333000002 cycles:  530418062 heartbeat IPC: 0.64796 cumulative IPC: 0.48492 (Simulation time: 0 hr 13 min 45 sec) 
Heartbeat CPU  0 instructions:  334000001 cycles:  531957777 heartbeat IPC: 0.64947 cumulative IPC: 0.48545 (Simulation time: 0 hr 13 min 47 sec) 
Heartbeat CPU  0 instructions:  335000003 cycles:  533667428 heartbeat IPC: 0.58492 cumulative IPC: 0.48580 (Simulation time: 0 hr 13 min 50 sec) 
Heartbeat CPU  0 instructions:  336000000 cycles:  535574271 heartbeat IPC: 0.52443 cumulative IPC: 0.48595 (Simulation time: 0 hr 13 min 53 sec) 
Heartbeat CPU  0 instructions:  337000001 cycles:  537455606 heartbeat IPC: 0.53154 cumulative IPC: 0.48612 (Simulation time: 0 hr 13 min 56 sec) 
Heartbeat CPU  0 instructions:  338000000 cycles:  539367724 heartbeat IPC: 0.52298 cumulative IPC: 0.48627 (Simulation time: 0 hr 13 min 58 sec) 
Heartbeat CPU  0 instructions:  339000000 cycles:  541248728 heartbeat IPC: 0.53163 cumulative IPC: 0.48644 (Simulation time: 0 hr 14 min 1 sec) 
Heartbeat CPU  0 instructions:  340000000 cycles:  542991484 heartbeat IPC: 0.57380 cumulative IPC: 0.48675 (Simulation time: 0 hr 14 min 4 sec) 
Heartbeat CPU  0 instructions:  341000003 cycles:  545315323 heartbeat IPC: 0.43032 cumulative IPC: 0.48649 (Simulation time: 0 hr 14 min 6 sec) 
Heartbeat CPU  0 instructions:  342000001 cycles:  547597035 heartbeat IPC: 0.43827 cumulative IPC: 0.48626 (Simulation time: 0 hr 14 min 9 sec) 
Heartbeat CPU  0 instructions:  343000002 cycles:  549104005 heartbeat IPC: 0.66358 cumulative IPC: 0.48680 (Simulation time: 0 hr 14 min 12 sec) 
Heartbeat CPU  0 instructions:  344000000 cycles:  550632052 heartbeat IPC: 0.65443 cumulative IPC: 0.48731 (Simulation time: 0 hr 14 min 14 sec) 
Heartbeat CPU  0 instructions:  345000003 cycles:  552222173 heartbeat IPC: 0.62888 cumulative IPC: 0.48776 (Simulation time: 0 hr 14 min 17 sec) 
Heartbeat CPU  0 instructions:  346000000 cycles:  554080887 heartbeat IPC: 0.53800 cumulative IPC: 0.48795 (Simulation time: 0 hr 14 min 20 sec) 
Heartbeat CPU  0 instructions:  347000000 cycles:  556057069 heartbeat IPC: 0.50603 cumulative IPC: 0.48802 (Simulation time: 0 hr 14 min 22 sec) 
Heartbeat CPU  0 instructions:  348000000 cycles:  558015471 heartbeat IPC: 0.51062 cumulative IPC: 0.48810 (Simulation time: 0 hr 14 min 25 sec) 
Heartbeat CPU  0 instructions:  349000001 cycles:  559836007 heartbeat IPC: 0.54929 cumulative IPC: 0.48832 (Simulation time: 0 hr 14 min 28 sec) 
Heartbeat CPU  0 instructions:  350000002 cycles:  561636108 heartbeat IPC: 0.55552 cumulative IPC: 0.48856 (Simulation time: 0 hr 14 min 30 sec) 
Heartbeat CPU  0 instructions:  351000001 cycles:  563716385 heartbeat IPC: 0.48070 cumulative IPC: 0.48853 (Simulation time: 0 hr 14 min 33 sec) 
Heartbeat CPU  0 instructions:  352000000 cycles:  565974648 heartbeat IPC: 0.44282 cumulative IPC: 0.48833 (Simulation time: 0 hr 14 min 36 sec) 
Heartbeat CPU  0 instructions:  353000002 cycles:  567793184 heartbeat IPC: 0.54989 cumulative IPC: 0.48854 (Simulation time: 0 hr 14 min 38 sec) 
Heartbeat CPU  0 instructions:  354000002 cycles:  569308178 heartbeat IPC: 0.66007 cumulative IPC: 0.48904 (Simulation time: 0 hr 14 min 41 sec) 
Heartbeat CPU  0 instructions:  355000003 cycles:  570834923 heartbeat IPC: 0.65499 cumulative IPC: 0.48953 (Simulation time: 0 hr 14 min 43 sec) 
Heartbeat CPU  0 instructions:  356000000 cycles:  572663107 heartbeat IPC: 0.54699 cumulative IPC: 0.48973 (Simulation time: 0 hr 14 min 46 sec) 
Heartbeat CPU  0 instructions:  357000002 cycles:  574614375 heartbeat IPC: 0.51249 cumulative IPC: 0.48981 (Simulation time: 0 hr 14 min 49 sec) 
Heartbeat CPU  0 instructions:  358000003 cycles:  576587046 heartbeat IPC: 0.50693 cumulative IPC: 0.48988 (Simulation time: 0 hr 14 min 52 sec) 
Heartbeat CPU  0 instructions:  359000001 cycles:  578445783 heartbeat IPC: 0.53800 cumulative IPC: 0.49005 (Simulation time: 0 hr 14 min 54 sec) 
Heartbeat CPU  0 instructions:  360000000 cycles:  580251614 heartbeat IPC: 0.55376 cumulative IPC: 0.49026 (Simulation time: 0 hr 14 min 57 sec) 
Heartbeat CPU  0 instructions:  361000003 cycles:  582043998 heartbeat IPC: 0.55792 cumulative IPC: 0.49049 (Simulation time: 0 hr 15 min 0 sec) 
Heartbeat CPU  0 instructions:  362000000 cycles:  584314776 heartbeat IPC: 0.44038 cumulative IPC: 0.49028 (Simulation time: 0 hr 15 min 2 sec) 
Heartbeat CPU  0 instructions:  363000000 cycles:  586518523 heartbeat IPC: 0.45377 cumulative IPC: 0.49013 (Simulation time: 0 hr 15 min 5 sec) 
Heartbeat CPU  0 instructions:  364000000 cycles:  588061513 heartbeat IPC: 0.64809 cumulative IPC: 0.49058 (Simulation time: 0 hr 15 min 8 sec) 
Heartbeat CPU  0 instructions:  365000000 cycles:  589580535 heartbeat IPC: 0.65832 cumulative IPC: 0.49105 (Simulation time: 0 hr 15 min 10 sec) 
Heartbeat CPU  0 instructions:  366000001 cycles:  591263733 heartbeat IPC: 0.59411 cumulative IPC: 0.49138 (Simulation time: 0 hr 15 min 13 sec) 
Heartbeat CPU  0 instructions:  367000002 cycles:  593097450 heartbeat IPC: 0.54534 cumulative IPC: 0.49156 (Simulation time: 0 hr 15 min 16 sec) 
Heartbeat CPU  0 instructions:  368000000 cycles:  595034982 heartbeat IPC: 0.51612 cumulative IPC: 0.49164 (Simulation time: 0 hr 15 min 18 sec) 
Heartbeat CPU  0 instructions:  369000001 cycles:  597031191 heartbeat IPC: 0.50095 cumulative IPC: 0.49168 (Simulation time: 0 hr 15 min 21 sec) 
Heartbeat CPU  0 instructions:  370000002 cycles:  598893395 heartbeat IPC: 0.53700 cumulative IPC: 0.49183 (Simulation time: 0 hr 15 min 24 sec) 
Heartbeat CPU  0 instructions:  371000000 cycles:  600682264 heartbeat IPC: 0.55901 cumulative IPC: 0.49205 (Simulation time: 0 hr 15 min 26 sec) 
Heartbeat CPU  0 instructions:  372000000 cycles:  602793564 heartbeat IPC: 0.47364 cumulative IPC: 0.49198 (Simulation time: 0 hr 15 min 29 sec) 
Heartbeat CPU  0 instructions:  373000003 cycles:  605090837 heartbeat IPC: 0.43530 cumulative IPC: 0.49175 (Simulation time: 0 hr 15 min 32 sec) 
Heartbeat CPU  0 instructions:  374000003 cycles:  606812600 heartbeat IPC: 0.58080 cumulative IPC: 0.49202 (Simulation time: 0 hr 15 min 34 sec) 
Heartbeat CPU  0 instructions:  375000001 cycles:  608333052 heartbeat IPC: 0.65770 cumulative IPC: 0.49247 (Simulation time: 0 hr 15 min 37 sec) 
Heartbeat CPU  0 instructions:  376000000 cycles:  609938261 heartbeat IPC: 0.62297 cumulative IPC: 0.49285 (Simulation time: 0 hr 15 min 40 sec) 
Heartbeat CPU  0 instructions:  377000001 cycles:  611666625 heartbeat IPC: 0.57858 cumulative IPC: 0.49311 (Simulation time: 0 hr 15 min 42 sec) 
Heartbeat CPU  0 instructions:  378000002 cycles:  613642146 heartbeat IPC: 0.50620 cumulative IPC: 0.49316 (Simulation time: 0 hr 15 min 45 sec) 
Heartbeat CPU  0 instructions:  379000001 cycles:  615653231 heartbeat IPC: 0.49724 cumulative IPC: 0.49317 (Simulation time: 0 hr 15 min 48 sec) 
Heartbeat CPU  0 instructions:  380000000 cycles:  617507447 heartbeat IPC: 0.53931 cumulative IPC: 0.49332 (Simulation time: 0 hr 15 min 50 sec) 
Heartbeat CPU  0 instructions:  381000000 cycles:  619262616 heartbeat IPC: 0.56975 cumulative IPC: 0.49356 (Simulation time: 0 hr 15 min 53 sec) 
Heartbeat CPU  0 instructions:  382000003 cycles:  621154545 heartbeat IPC: 0.52856 cumulative IPC: 0.49367 (Simulation time: 0 hr 15 min 56 sec) 
Heartbeat CPU  0 instructions:  383000001 cycles:  623385806 heartbeat IPC: 0.44818 cumulative IPC: 0.49350 (Simulation time: 0 hr 15 min 58 sec) 
Heartbeat CPU  0 instructions:  384000000 cycles:  625448109 heartbeat IPC: 0.48489 cumulative IPC: 0.49346 (Simulation time: 0 hr 16 min 1 sec) 
Heartbeat CPU  0 instructions:  385000000 cycles:  626971166 heartbeat IPC: 0.65657 cumulative IPC: 0.49390 (Simulation time: 0 hr 16 min 4 sec) 
Heartbeat CPU  0 instructions:  386000001 cycles:  628472665 heartbeat IPC: 0.66600 cumulative IPC: 0.49434 (Simulation time: 0 hr 16 min 6 sec) 
Heartbeat CPU  0 instructions:  387000000 cycles:  630187422 heartbeat IPC: 0.58317 cumulative IPC: 0.49460 (Simulation time: 0 hr 16 min 9 sec) 
Heartbeat CPU  0 instructions:  388000000 cycles:  632078228 heartbeat IPC: 0.52887 cumulative IPC: 0.49472 (Simulation time: 0 hr 16 min 11 sec) 
Heartbeat CPU  0 instructions:  389000001 cycles:  634115922 heartbeat IPC: 0.49075 cumulative IPC: 0.49470 (Simulation time: 0 hr 16 min 14 sec) 
Heartbeat CPU  0 instructions:  390000000 cycles:  636034483 heartbeat IPC: 0.52122 cumulative IPC: 0.49479 (Simulation time: 0 hr 16 min 17 sec) 
Heartbeat CPU  0 instructions:  391000003 cycles:  637800857 heartbeat IPC: 0.56613 cumulative IPC: 0.49500 (Simulation time: 0 hr 16 min 20 sec) 
Heartbeat CPU  0 instructions:  392000000 cycles:  639584377 heartbeat IPC: 0.56069 cumulative IPC: 0.49520 (Simulation time: 0 hr 16 min 22 sec) 
Heartbeat CPU  0 instructions:  393000002 cycles:  641743003 heartbeat IPC: 0.46326 cumulative IPC: 0.49509 (Simulation time: 0 hr 16 min 25 sec) 
Heartbeat CPU  0 instructions:  394000000 cycles:  644040170 heartbeat IPC: 0.43532 cumulative IPC: 0.49485 (Simulation time: 0 hr 16 min 28 sec) 
Heartbeat CPU  0 instructions:  395000002 cycles:  645645802 heartbeat IPC: 0.62281 cumulative IPC: 0.49520 (Simulation time: 0 hr 16 min 30 sec) 
Heartbeat CPU  0 instructions:  396000000 cycles:  647167863 heartbeat IPC: 0.65700 cumulative IPC: 0.49561 (Simulation time: 0 hr 16 min 33 sec) 
Heartbeat CPU  0 instructions:  397000003 cycles:  648753604 heartbeat IPC: 0.63062 cumulative IPC: 0.49597 (Simulation time: 0 hr 16 min 35 sec) 
Heartbeat CPU  0 instructions:  398000001 cycles:  650540086 heartbeat IPC: 0.55976 cumulative IPC: 0.49616 (Simulation time: 0 hr 16 min 38 sec) 
Heartbeat CPU  0 instructions:  399000000 cycles:  652533708 heartbeat IPC: 0.50160 cumulative IPC: 0.49618 (Simulation time: 0 hr 16 min 41 sec) 
Heartbeat CPU  0 instructions:  400000000 cycles:  654444888 heartbeat IPC: 0.52324 cumulative IPC: 0.49626 (Simulation time: 0 hr 16 min 43 sec) 
Heartbeat CPU  0 instructions:  401000002 cycles:  656290009 heartbeat IPC: 0.54197 cumulative IPC: 0.49640 (Simulation time: 0 hr 16 min 46 sec) 
Heartbeat CPU  0 instructions:  402000000 cycles:  658029099 heartbeat IPC: 0.57501 cumulative IPC: 0.49663 (Simulation time: 0 hr 16 min 49 sec) 
Heartbeat CPU  0 instructions:  403000000 cycles:  659966158 heartbeat IPC: 0.51625 cumulative IPC: 0.49669 (Simulation time: 0 hr 16 min 51 sec) 
Heartbeat CPU  0 instructions:  404000000 cycles:  662195337 heartbeat IPC: 0.44860 cumulative IPC: 0.49651 (Simulation time: 0 hr 16 min 54 sec) 
Heartbeat CPU  0 instructions:  405000003 cycles:  664643745 heartbeat IPC: 0.40843 cumulative IPC: 0.49616 (Simulation time: 0 hr 16 min 57 sec) 
Heartbeat CPU  0 instructions:  406000003 cycles:  666435635 heartbeat IPC: 0.55807 cumulative IPC: 0.49634 (Simulation time: 0 hr 17 min 0 sec) 
Heartbeat CPU  0 instructions:  407000000 cycles:  668004652 heartbeat IPC: 0.63734 cumulative IPC: 0.49670 (Simulation time: 0 hr 17 min 2 sec) 
Heartbeat CPU  0 instructions:  408000000 cycles:  669913287 heartbeat IPC: 0.52393 cumulative IPC: 0.49678 (Simulation time: 0 hr 17 min 5 sec) 
Heartbeat CPU  0 instructions:  409000003 cycles:  671924213 heartbeat IPC: 0.49728 cumulative IPC: 0.49679 (Simulation time: 0 hr 17 min 8 sec) 
Heartbeat CPU  0 instructions:  410000000 cycles:  674109948 heartbeat IPC: 0.45751 cumulative IPC: 0.49665 (Simulation time: 0 hr 17 min 11 sec) 
Heartbeat CPU  0 instructions:  411000000 cycles:  676250562 heartbeat IPC: 0.46716 cumulative IPC: 0.49655 (Simulation time: 0 hr 17 min 14 sec) 
Heartbeat CPU  0 instructions:  412000000 cycles:  678403290 heartbeat IPC: 0.46453 cumulative IPC: 0.49644 (Simulation time: 0 hr 17 min 16 sec) 
Heartbeat CPU  0 instructions:  413000003 cycles:  680422517 heartbeat IPC: 0.49524 cumulative IPC: 0.49643 (Simulation time: 0 hr 17 min 19 sec) 
Heartbeat CPU  0 instructions:  414000000 cycles:  682382942 heartbeat IPC: 0.51009 cumulative IPC: 0.49648 (Simulation time: 0 hr 17 min 22 sec) 
Heartbeat CPU  0 instructions:  415000003 cycles:  684215934 heartbeat IPC: 0.54556 cumulative IPC: 0.49662 (Simulation time: 0 hr 17 min 25 sec) 
Heartbeat CPU  0 instructions:  416000000 cycles:  687159072 heartbeat IPC: 0.33977 cumulative IPC: 0.49589 (Simulation time: 0 hr 17 min 28 sec) 
Heartbeat CPU  0 instructions:  417000001 cycles:  688859802 heartbeat IPC: 0.58798 cumulative IPC: 0.49614 (Simulation time: 0 hr 17 min 31 sec) 
Heartbeat CPU  0 instructions:  418000003 cycles:  690591719 heartbeat IPC: 0.57740 cumulative IPC: 0.49636 (Simulation time: 0 hr 17 min 33 sec) 
Heartbeat CPU  0 instructions:  419000002 cycles:  692221799 heartbeat IPC: 0.61347 cumulative IPC: 0.49666 (Simulation time: 0 hr 17 min 36 sec) 
Heartbeat CPU  0 instructions:  420000000 cycles:  693913697 heartbeat IPC: 0.59105 cumulative IPC: 0.49690 (Simulation time: 0 hr 17 min 38 sec) 
Heartbeat CPU  0 instructions:  421000003 cycles:  695689389 heartbeat IPC: 0.56316 cumulative IPC: 0.49709 (Simulation time: 0 hr 17 min 41 sec) 
Heartbeat CPU  0 instructions:  422000003 cycles:  697447024 heartbeat IPC: 0.56895 cumulative IPC: 0.49728 (Simulation time: 0 hr 17 min 44 sec) 
Heartbeat CPU  0 instructions:  423000002 cycles:  699173129 heartbeat IPC: 0.57934 cumulative IPC: 0.49750 (Simulation time: 0 hr 17 min 46 sec) 
Heartbeat CPU  0 instructions:  424000000 cycles:  700864573 heartbeat IPC: 0.59121 cumulative IPC: 0.49774 (Simulation time: 0 hr 17 min 49 sec) 
Heartbeat CPU  0 instructions:  425000003 cycles:  702711349 heartbeat IPC: 0.54149 cumulative IPC: 0.49787 (Simulation time: 0 hr 17 min 52 sec) 
Heartbeat CPU  0 instructions:  426000001 cycles:  705432309 heartbeat IPC: 0.36752 cumulative IPC: 0.49733 (Simulation time: 0 hr 17 min 55 sec) 
Heartbeat CPU  0 instructions:  427000003 cycles:  707397076 heartbeat IPC: 0.50897 cumulative IPC: 0.49736 (Simulation time: 0 hr 17 min 58 sec) 
Heartbeat CPU  0 instructions:  428000000 cycles:  709116132 heartbeat IPC: 0.58171 cumulative IPC: 0.49758 (Simulation time: 0 hr 18 min 0 sec) 
Heartbeat CPU  0 instructions:  429000000 cycles:  710831703 heartbeat IPC: 0.58290 cumulative IPC: 0.49780 (Simulation time: 0 hr 18 min 3 sec) 
Heartbeat CPU  0 instructions:  430000003 cycles:  712518697 heartbeat IPC: 0.59277 cumulative IPC: 0.49804 (Simulation time: 0 hr 18 min 6 sec) 
Heartbeat CPU  0 instructions:  431000002 cycles:  714192449 heartbeat IPC: 0.59746 cumulative IPC: 0.49829 (Simulation time: 0 hr 18 min 8 sec) 
Heartbeat CPU  0 instructions:  432000000 cycles:  715894301 heartbeat IPC: 0.58759 cumulative IPC: 0.49852 (Simulation time: 0 hr 18 min 11 sec) 
Heartbeat CPU  0 instructions:  433000001 cycles:  717673719 heartbeat IPC: 0.56198 cumulative IPC: 0.49869 (Simulation time: 0 hr 18 min 14 sec) 
Heartbeat CPU  0 instructions:  434000001 cycles:  719557969 heartbeat IPC: 0.53072 cumulative IPC: 0.49878 (Simulation time: 0 hr 18 min 16 sec) 
Heartbeat CPU  0 instructions:  435000002 cycles:  721449713 heartbeat IPC: 0.52861 cumulative IPC: 0.49887 (Simulation time: 0 hr 18 min 19 sec) 
Heartbeat CPU  0 instructions:  436000000 cycles:  723450240 heartbeat IPC: 0.49987 cumulative IPC: 0.49887 (Simulation time: 0 hr 18 min 22 sec) 
Heartbeat CPU  0 instructions:  437000001 cycles:  726160839 heartbeat IPC: 0.36892 cumulative IPC: 0.49835 (Simulation time: 0 hr 18 min 25 sec) 
Heartbeat CPU  0 instructions:  438000002 cycles:  727890206 heartbeat IPC: 0.57825 cumulative IPC: 0.49855 (Simulation time: 0 hr 18 min 28 sec) 
Heartbeat CPU  0 instructions:  439000003 cycles:  729518052 heartbeat IPC: 0.61431 cumulative IPC: 0.49883 (Simulation time: 0 hr 18 min 30 sec) 
Heartbeat CPU  0 instructions:  440000000 cycles:  731205693 heartbeat IPC: 0.59254 cumulative IPC: 0.49906 (Simulation time: 0 hr 18 min 33 sec) 
Heartbeat CPU  0 instructions:  441000000 cycles:  732942551 heartbeat IPC: 0.57575 cumulative IPC: 0.49926 (Simulation time: 0 hr 18 min 36 sec) 
Heartbeat CPU  0 instructions:  442000003 cycles:  734692043 heartbeat IPC: 0.57160 cumulative IPC: 0.49944 (Simulation time: 0 hr 18 min 38 sec) 
Heartbeat CPU  0 instructions:  443000003 cycles:  736449837 heartbeat IPC: 0.56889 cumulative IPC: 0.49962 (Simulation time: 0 hr 18 min 41 sec) 
Heartbeat CPU  0 instructions:  444000000 cycles:  738230367 heartbeat IPC: 0.56163 cumulative IPC: 0.49978 (Simulation time: 0 hr 18 min 44 sec) 
Heartbeat CPU  0 instructions:  445000000 cycles:  740069408 heartbeat IPC: 0.54376 cumulative IPC: 0.49990 (Simulation time: 0 hr 18 min 47 sec) 
Heartbeat CPU  0 instructions:  446000001 cycles:  742002561 heartbeat IPC: 0.51729 cumulative IPC: 0.49994 (Simulation time: 0 hr 18 min 49 sec) 
Heartbeat CPU  0 instructions:  447000000 cycles:  744910359 heartbeat IPC: 0.34390 cumulative IPC: 0.49929 (Simulation time: 0 hr 18 min 53 sec) 
Heartbeat CPU  0 instructions:  448000000 cycles:  746744428 heartbeat IPC: 0.54524 cumulative IPC: 0.49941 (Simulation time: 0 hr 18 min 55 sec) 
Heartbeat CPU  0 instructions:  449000002 cycles:  748420724 heartbeat IPC: 0.59655 cumulative IPC: 0.49965 (Simulation time: 0 hr 18 min 58 sec) 
Heartbeat CPU  0 instructions:  450000000 cycles:  750137386 heartbeat IPC: 0.58252 cumulative IPC: 0.49985 (Simulation time: 0 hr 19 min 1 sec) 
Heartbeat CPU  0 instructions:  451000003 cycles:  751818587 heartbeat IPC: 0.59481 cumulative IPC: 0.50008 (Simulation time: 0 hr 19 min 3 sec) 
Heartbeat CPU  0 instructions:  452000000 cycles:  753513563 heartbeat IPC: 0.58998 cumulative IPC: 0.50029 (Simulation time: 0 hr 19 min 6 sec) 
Heartbeat CPU  0 instructions:  453000002 cycles:  755254276 heartbeat IPC: 0.57448 cumulative IPC: 0.50048 (Simulation time: 0 hr 19 min 9 sec) 
Heartbeat CPU  0 instructions:  454000003 cycles:  757043122 heartbeat IPC: 0.55902 cumulative IPC: 0.50062 (Simulation time: 0 hr 19 min 11 sec) 
Heartbeat CPU  0 instructions:  455000001 cycles:  758795211 heartbeat IPC: 0.57075 cumulative IPC: 0.50080 (Simulation time: 0 hr 19 min 14 sec) 
Heartbeat CPU  0 instructions:  456000000 cycles:  760602657 heartbeat IPC: 0.55327 cumulative IPC: 0.50093 (Simulation time: 0 hr 19 min 17 sec) 
Heartbeat CPU  0 instructions:  457000002 cycles:  762862078 heartbeat IPC: 0.44259 cumulative IPC: 0.50075 (Simulation time: 0 hr 19 min 19 sec) 
Heartbeat CPU  0 instructions:  458000002 cycles:  766627340 heartbeat IPC: 0.26559 cumulative IPC: 0.49951 (Simulation time: 0 hr 19 min 23 sec) 
Heartbeat CPU  0 instructions:  459000002 cycles:  770061848 heartbeat IPC: 0.29116 cumulative IPC: 0.49852 (Simulation time: 0 hr 19 min 26 sec) 
Heartbeat CPU  0 instructions:  460000000 cycles:  773370633 heartbeat IPC: 0.30223 cumulative IPC: 0.49762 (Simulation time: 0 hr 19 min 29 sec) 
Heartbeat CPU  0 instructions:  461000002 cycles:  776526992 heartbeat IPC: 0.31682 cumulative IPC: 0.49683 (Simulation time: 0 hr 19 min 33 sec) 
Heartbeat CPU  0 instructions:  462000002 cycles:  780010956 heartbeat IPC: 0.28703 cumulative IPC: 0.49583 (Simulation time: 0 hr 19 min 36 sec) 
Heartbeat CPU  0 instructions:  463000002 cycles:  783355437 heartbeat IPC: 0.29900 cumulative IPC: 0.49494 (Simulation time: 0 hr 19 min 39 sec) 
Heartbeat CPU  0 instructions:  464000000 cycles:  786745319 heartbeat IPC: 0.29499 cumulative IPC: 0.49402 (Simulation time: 0 hr 19 min 42 sec) 
Heartbeat CPU  0 instructions:  465000000 cycles:  790127978 heartbeat IPC: 0.29563 cumulative IPC: 0.49311 (Simulation time: 0 hr 19 min 46 sec) 
Heartbeat CPU  0 instructions:  466000001 cycles:  793478735 heartbeat IPC: 0.29844 cumulative IPC: 0.49223 (Simulation time: 0 hr 19 min 49 sec) 
Heartbeat CPU  0 instructions:  467000000 cycles:  796808954 heartbeat IPC: 0.30028 cumulative IPC: 0.49138 (Simulation time: 0 hr 19 min 52 sec) 
Heartbeat CPU  0 instructions:  468000000 cycles:  800103866 heartbeat IPC: 0.30350 cumulative IPC: 0.49055 (Simulation time: 0 hr 19 min 55 sec) 
Heartbeat CPU  0 instructions:  469000003 cycles:  803344383 heartbeat IPC: 0.30859 cumulative IPC: 0.48977 (Simulation time: 0 hr 19 min 58 sec) 
Heartbeat CPU  0 instructions:  470000001 cycles:  806619483 heartbeat IPC: 0.30533 cumulative IPC: 0.48897 (Simulation time: 0 hr 20 min 1 sec) 
Heartbeat CPU  0 instructions:  471000003 cycles:  809939042 heartbeat IPC: 0.30125 cumulative IPC: 0.48815 (Simulation time: 0 hr 20 min 5 sec) 
Heartbeat CPU  0 instructions:  472000000 cycles:  813311162 heartbeat IPC: 0.29655 cumulative IPC: 0.48730 (Simulation time: 0 hr 20 min 8 sec) 
Heartbeat CPU  0 instructions:  473000000 cycles:  816820040 heartbeat IPC: 0.28499 cumulative IPC: 0.48638 (Simulation time: 0 hr 20 min 11 sec) 
Heartbeat CPU  0 instructions:  474000000 cycles:  820214123 heartbeat IPC: 0.29463 cumulative IPC: 0.48553 (Simulation time: 0 hr 20 min 14 sec) 
Heartbeat CPU  0 instructions:  475000002 cycles:  823641000 heartbeat IPC: 0.29181 cumulative IPC: 0.48467 (Simulation time: 0 hr 20 min 18 sec) 
Heartbeat CPU  0 instructions:  476000000 cycles:  826937881 heartbeat IPC: 0.30332 cumulative IPC: 0.48391 (Simulation time: 0 hr 20 min 21 sec) 
Heartbeat CPU  0 instructions:  477000002 cycles:  830318399 heartbeat IPC: 0.29581 cumulative IPC: 0.48309 (Simulation time: 0 hr 20 min 24 sec) 
Heartbeat CPU  0 instructions:  478000002 cycles:  833781156 heartbeat IPC: 0.28879 cumulative IPC: 0.48223 (Simulation time: 0 hr 20 min 27 sec) 
Heartbeat CPU  0 instructions:  479000002 cycles:  837158249 heartbeat IPC: 0.29611 cumulative IPC: 0.48143 (Simulation time: 0 hr 20 min 30 sec) 
Heartbeat CPU  0 instructions:  480000000 cycles:  839871853 heartbeat IPC: 0.36851 cumulative IPC: 0.48105 (Simulation time: 0 hr 20 min 34 sec) 
Heartbeat CPU  0 instructions:  481000002 cycles:  842592011 heartbeat IPC: 0.36763 cumulative IPC: 0.48066 (Simulation time: 0 hr 20 min 37 sec) 
Heartbeat CPU  0 instructions:  482000003 cycles:  845175640 heartbeat IPC: 0.38705 cumulative IPC: 0.48035 (Simulation time: 0 hr 20 min 40 sec) 
Heartbeat CPU  0 instructions:  483000000 cycles:  847607095 heartbeat IPC: 0.41128 cumulative IPC: 0.48014 (Simulation time: 0 hr 20 min 43 sec) 
Heartbeat CPU  0 instructions:  484000000 cycles:  849942786 heartbeat IPC: 0.42814 cumulative IPC: 0.47999 (Simulation time: 0 hr 20 min 46 sec) 
Heartbeat CPU  0 instructions:  485000003 cycles:  852332548 heartbeat IPC: 0.41845 cumulative IPC: 0.47981 (Simulation time: 0 hr 20 min 49 sec) 
Heartbeat CPU  0 instructions:  486000003 cycles:  854790895 heartbeat IPC: 0.40678 cumulative IPC: 0.47958 (Simulation time: 0 hr 20 min 52 sec) 
Heartbeat CPU  0 instructions:  487000000 cycles:  857244170 heartbeat IPC: 0.40762 cumulative IPC: 0.47936 (Simulation time: 0 hr 20 min 55 sec) 
Heartbeat CPU  0 instructions:  488000000 cycles:  859684006 heartbeat IPC: 0.40986 cumulative IPC: 0.47916 (Simulation time: 0 hr 20 min 59 sec) 
Heartbeat CPU  0 instructions:  489000000 cycles:  862135707 heartbeat IPC: 0.40788 cumulative IPC: 0.47894 (Simulation time: 0 hr 21 min 2 sec) 
Heartbeat CPU  0 instructions:  490000000 cycles:  864522127 heartbeat IPC: 0.41904 cumulative IPC: 0.47876 (Simulation time: 0 hr 21 min 5 sec) 
Heartbeat CPU  0 instructions:  491000001 cycles:  866908241 heartbeat IPC: 0.41909 cumulative IPC: 0.47859 (Simulation time: 0 hr 21 min 8 sec) 
Heartbeat CPU  0 instructions:  492000000 cycles:  869434560 heartbeat IPC: 0.39583 cumulative IPC: 0.47834 (Simulation time: 0 hr 21 min 11 sec) 
Heartbeat CPU  0 instructions:  493000001 cycles:  871883599 heartbeat IPC: 0.40832 cumulative IPC: 0.47813 (Simulation time: 0 hr 21 min 14 sec) 
Heartbeat CPU  0 instructions:  494000000 cycles:  874272352 heartbeat IPC: 0.41863 cumulative IPC: 0.47795 (Simulation time: 0 hr 21 min 17 sec) 
Heartbeat CPU  0 instructions:  495000001 cycles:  876686623 heartbeat IPC: 0.41420 cumulative IPC: 0.47777 (Simulation time: 0 hr 21 min 20 sec) 
Heartbeat CPU  0 instructions:  496000000 cycles:  879121965 heartbeat IPC: 0.41062 cumulative IPC: 0.47757 (Simulation time: 0 hr 21 min 23 sec) 
Heartbeat CPU  0 instructions:  497000001 cycles:  881575005 heartbeat IPC: 0.40766 cumulative IPC: 0.47736 (Simulation time: 0 hr 21 min 26 sec) 
Heartbeat CPU  0 instructions:  498000000 cycles:  884020860 heartbeat IPC: 0.40885 cumulative IPC: 0.47716 (Simulation time: 0 hr 21 min 30 sec) 
Heartbeat CPU  0 instructions:  499000001 cycles:  886452775 heartbeat IPC: 0.41120 cumulative IPC: 0.47697 (Simulation time: 0 hr 21 min 33 sec) 
Heartbeat CPU  0 instructions:  500000000 cycles:  888903630 heartbeat IPC: 0.40802 cumulative IPC: 0.47677 (Simulation time: 0 hr 21 min 36 sec) 
Heartbeat CPU  0 instructions:  501000002 cycles:  891333146 heartbeat IPC: 0.41161 cumulative IPC: 0.47658 (Simulation time: 0 hr 21 min 39 sec) 
Heartbeat CPU  0 instructions:  502000003 cycles:  893785042 heartbeat IPC: 0.40785 cumulative IPC: 0.47638 (Simulation time: 0 hr 21 min 42 sec) 
Heartbeat CPU  0 instructions:  503000000 cycles:  896263923 heartbeat IPC: 0.40341 cumulative IPC: 0.47617 (Simulation time: 0 hr 21 min 45 sec) 
Heartbeat CPU  0 instructions:  504000000 cycles:  898641193 heartbeat IPC: 0.42065 cumulative IPC: 0.47601 (Simulation time: 0 hr 21 min 48 sec) 
Heartbeat CPU  0 instructions:  505000001 cycles:  901076646 heartbeat IPC: 0.41060 cumulative IPC: 0.47583 (Simulation time: 0 hr 21 min 51 sec) 
Heartbeat CPU  0 instructions:  506000000 cycles:  903447387 heartbeat IPC: 0.42181 cumulative IPC: 0.47568 (Simulation time: 0 hr 21 min 54 sec) 
Heartbeat CPU  0 instructions:  507000003 cycles:  905876427 heartbeat IPC: 0.41169 cumulative IPC: 0.47549 (Simulation time: 0 hr 21 min 57 sec) 
Heartbeat CPU  0 instructions:  508000000 cycles:  908284818 heartbeat IPC: 0.41521 cumulative IPC: 0.47533 (Simulation time: 0 hr 22 min 1 sec) 
Heartbeat CPU  0 instructions:  509000003 cycles:  910693643 heartbeat IPC: 0.41514 cumulative IPC: 0.47516 (Simulation time: 0 hr 22 min 4 sec) 
Heartbeat CPU  0 instructions:  510000000 cycles:  913103965 heartbeat IPC: 0.41488 cumulative IPC: 0.47499 (Simulation time: 0 hr 22 min 7 sec) 
Heartbeat CPU  0 instructions:  511000002 cycles:  915449563 heartbeat IPC: 0.42633 cumulative IPC: 0.47486 (Simulation time: 0 hr 22 min 10 sec) 
Heartbeat CPU  0 instructions:  512000000 cycles:  917025056 heartbeat IPC: 0.63472 cumulative IPC: 0.47515 (Simulation time: 0 hr 22 min 12 sec) 
Heartbeat CPU  0 instructions:  513000000 cycles:  918209359 heartbeat IPC: 0.84438 cumulative IPC: 0.47565 (Simulation time: 0 hr 22 min 14 sec) 
Heartbeat CPU  0 instructions:  514000003 cycles:  919252175 heartbeat IPC: 0.95894 cumulative IPC: 0.47623 (Simulation time: 0 hr 22 min 17 sec) 
Heartbeat CPU  0 instructions:  515000002 cycles:  920360174 heartbeat IPC: 0.90253 cumulative IPC: 0.47677 (Simulation time: 0 hr 22 min 19 sec) 
Heartbeat CPU  0 instructions:  516000000 cycles:  921482122 heartbeat IPC: 0.89131 cumulative IPC: 0.47731 (Simulation time: 0 hr 22 min 21 sec) 
Heartbeat CPU  0 instructions:  517000001 cycles:  922627772 heartbeat IPC: 0.87287 cumulative IPC: 0.47783 (Simulation time: 0 hr 22 min 23 sec) 
Heartbeat CPU  0 instructions:  518000003 cycles:  923677517 heartbeat IPC: 0.95261 cumulative IPC: 0.47840 (Simulation time: 0 hr 22 min 25 sec) 
Heartbeat CPU  0 instructions:  519000001 cycles:  924747855 heartbeat IPC: 0.93428 cumulative IPC: 0.47895 (Simulation time: 0 hr 22 min 28 sec) 
Heartbeat CPU  0 instructions:  520000000 cycles:  925888983 heartbeat IPC: 0.87633 cumulative IPC: 0.47947 (Simulation time: 0 hr 22 min 30 sec) 
Heartbeat CPU  0 instructions:  521000002 cycles:  927027997 heartbeat IPC: 0.87795 cumulative IPC: 0.47999 (Simulation time: 0 hr 22 min 32 sec) 
Heartbeat CPU  0 instructions:  522000002 cycles:  928198321 heartbeat IPC: 0.85446 cumulative IPC: 0.48049 (Simulation time: 0 hr 22 min 34 sec) 
Heartbeat CPU  0 instructions:  523000000 cycles:  929232784 heartbeat IPC: 0.96668 cumulative IPC: 0.48106 (Simulation time: 0 hr 22 min 37 sec) 
Heartbeat CPU  0 instructions:  524000000 cycles:  930357688 heartbeat IPC: 0.88896 cumulative IPC: 0.48158 (Simulation time: 0 hr 22 min 39 sec) 
Heartbeat CPU  0 instructions:  525000003 cycles:  931511569 heartbeat IPC: 0.86664 cumulative IPC: 0.48209 (Simulation time: 0 hr 22 min 41 sec) 
Heartbeat CPU  0 instructions:  526000001 cycles:  932672619 heartbeat IPC: 0.86129 cumulative IPC: 0.48258 (Simulation time: 0 hr 22 min 43 sec) 
Heartbeat CPU  0 instructions:  527000003 cycles:  933788702 heartbeat IPC: 0.89599 cumulative IPC: 0.48311 (Simulation time: 0 hr 22 min 46 sec) 
Heartbeat CPU  0 instructions:  528000000 cycles:  934889868 heartbeat IPC: 0.90813 cumulative IPC: 0.48364 (Simulation time: 0 hr 22 min 48 sec) 
[...]
Heartbeat CPU  0 instructions:  550000001 cycles:  959735319 heartbeat IPC: 0.94997 cumulative IPC: 0.49461 (Simulation time: 0 hr 23 min 37 sec) 
Heartbeat CPU  0 instructions:  551000002 cycles:  960852757 heartbeat IPC: 0.89491 cumulative IPC: 0.49510 (Simulation time: 0 hr 23 min 39 sec) 
Heartbeat CPU  0 instructions:  552000000 cycles:  961999613 heartbeat IPC: 0.87195 cumulative IPC: 0.49557 (Simulation time: 0 hr 23 min 42 sec) 
Heartbeat CPU  0 instructions:  553000002 cycles:  963140776 heartbeat IPC: 0.87630 cumulative IPC: 0.49605 (Simulation time: 0 hr 23 min 44 sec) 
Heartbeat CPU  0 instructions:  554000002 cycles:  964324370 heartbeat IPC: 0.84488 cumulative IPC: 0.49650 (Simulation time: 0 hr 23 min 46 sec) 
Heartbeat CPU  0 instructions:  555000001 cycles:  965332588 heartbeat IPC: 0.99185 cumulative IPC: 0.49705 (Simulation time: 0 hr 23 min 48 sec) 
Heartbeat CPU  0 instructions:  556000000 cycles:  966483442 heartbeat IPC: 0.86892 cumulative IPC: 0.49751 (Simulation time: 0 hr 23 min 51 sec) 
Heartbeat CPU  0 instructions:  557000003 cycles:  967621245 heartbeat IPC: 0.87889 cumulative IPC: 0.49799 (Simulation time: 0 hr 23 min 53 sec) 
Heartbeat CPU  0 instructions:  558000001 cycles:  968771310 heartbeat IPC: 0.86951 cumulative IPC: 0.49845 (Simulation time: 0 hr 23 min 55 sec) 
Heartbeat CPU  0 instructions:  559000001 cycles:  969902446 heartbeat IPC: 0.88407 cumulative IPC: 0.49893 (Simulation time: 0 hr 23 min 57 sec) 
Heartbeat CPU  0 instructions:  560000000 cycles:  970984842 heartbeat IPC: 0.92388 cumulative IPC: 0.49943 (Simulation time: 0 hr 24 min 0 sec) 
Heartbeat CPU  0 instructions:  561000003 cycles:  972139724 heartbeat IPC: 0.86589 cumulative IPC: 0.49988 (Simulation time: 0 hr 24 min 2 sec) 
Heartbeat CPU  0 instructions:  562000001 cycles:  973300075 heartbeat IPC: 0.86181 cumulative IPC: 0.50034 (Simulation time: 0 hr 24 min 4 sec) 
Heartbeat CPU  0 instructions:  563000003 cycles:  974443937 heartbeat IPC: 0.87423 cumulative IPC: 0.50080 (Simulation time: 0 hr 24 min 6 sec) 
Heartbeat CPU  0 instructions:  564000000 cycles:  975530384 heartbeat IPC: 0.92043 cumulative IPC: 0.50129 (Simulation time: 0 hr 24 min 9 sec) 
Heartbeat CPU  0 instructions:  565000002 cycles:  976666536 heartbeat IPC: 0.88017 cumulative IPC: 0.50176 (Simulation time: 0 hr 24 min 11 sec) 
Heartbeat CPU  0 instructions:  566000002 cycles:  977825861 heartbeat IPC: 0.86257 cumulative IPC: 0.50221 (Simulation time: 0 hr 24 min 13 sec) 
Heartbeat CPU  0 instructions:  567000001 cycles:  978978404 heartbeat IPC: 0.86765 cumulative IPC: 0.50266 (Simulation time: 0 hr 24 min 15 sec) 
Heartbeat CPU  0 instructions:  568000000 cycles:  980076907 heartbeat IPC: 0.91033 cumulative IPC: 0.50314 (Simulation time: 0 hr 24 min 17 sec) 
Heartbeat CPU  0 instructions:  569000002 cycles:  981198710 heartbeat IPC: 0.89142 cumulative IPC: 0.50361 (Simulation time: 0 hr 24 min 20 sec) 
Heartbeat CPU  0 instructions:  570000001 cycles:  982340550 heartbeat IPC: 0.87578 cumulative IPC: 0.50407 (Simulation time: 0 hr 24 min 22 sec) 
Heartbeat CPU  0 instructions:  571000000 cycles:  983480516 heartbeat IPC: 0.87722 cumulative IPC: 0.50452 (Simulation time: 0 hr 24 min 24 sec) 
Heartbeat CPU  0 instructions:  572000000 cycles:  984638471 heartbeat IPC: 0.86359 cumulative IPC: 0.50497 (Simulation time: 0 hr 24 min 26 sec) 
Heartbeat CPU  0 instructions:  573000002 cycles:  985677294 heartbeat IPC: 0.96263 cumulative IPC: 0.50548 (Simulation time: 0 hr 24 min 29 sec) 
Heartbeat CPU  0 instructions:  574000002 cycles:  986847736 heartbeat IPC: 0.85438 cumulative IPC: 0.50591 (Simulation time: 0 hr 24 min 31 sec) 
Heartbeat CPU  0 instructions:  575000000 cycles:  988000210 heartbeat IPC: 0.86770 cumulative IPC: 0.50636 (Simulation time: 0 hr 24 min 33 sec) 
Heartbeat CPU  0 instructions:  576000000 cycles:  989144704 heartbeat IPC: 0.87375 cumulative IPC: 0.50680 (Simulation time: 0 hr 24 min 35 sec) 
Heartbeat CPU  0 instructions:  577000002 cycles:  990302368 heartbeat IPC: 0.86381 cumulative IPC: 0.50724 (Simulation time: 0 hr 24 min 38 sec) 
Heartbeat CPU  0 instructions:  578000002 cycles:  991352026 heartbeat IPC: 0.95269 cumulative IPC: 0.50774 (Simulation time: 0 hr 24 min 40 sec) 
Heartbeat CPU  0 instructions:  579000001 cycles:  992531287 heartbeat IPC: 0.84799 cumulative IPC: 0.50817 (Simulation time: 0 hr 24 min 42 sec) 
Heartbeat CPU  0 instructions:  580000000 cycles:  993699797 heartbeat IPC: 0.85579 cumulative IPC: 0.50860 (Simulation time: 0 hr 24 min 44 sec) 
Heartbeat CPU  0 instructions:  581000002 cycles:  994824641 heartbeat IPC: 0.88901 cumulative IPC: 0.50905 (Simulation time: 0 hr 24 min 47 sec) 
Heartbeat CPU  0 instructions:  582000003 cycles:  995914135 heartbeat IPC: 0.91786 cumulative IPC: 0.50952 (Simulation time: 0 hr 24 min 49 sec) 
Heartbeat CPU  0 instructions:  583000002 cycles:  997046561 heartbeat IPC: 0.88306 cumulative IPC: 0.50997 (Simulation time: 0 hr 24 min 51 sec) 
Heartbeat CPU  0 instructions:  584000000 cycles:  998226078 heartbeat IPC: 0.84780 cumulative IPC: 0.51039 (Simulation time: 0 hr 24 min 53 sec) 
Heartbeat CPU  0 instructions:  585000003 cycles:  999423380 heartbeat IPC: 0.83521 cumulative IPC: 0.51080 (Simulation time: 0 hr 24 min 56 sec) 
Heartbeat CPU  0 instructions:  586000000 cycles: 1000512443 heartbeat IPC: 0.91822 cumulative IPC: 0.51126 (Simulation time: 0 hr 24 min 58 sec) 
Heartbeat CPU  0 instructions:  587000002 cycles: 1001604602 heartbeat IPC: 0.91562 cumulative IPC: 0.51173 (Simulation time: 0 hr 25 min 0 sec) 
Heartbeat CPU  0 instructions:  588000000 cycles: 1002763680 heartbeat IPC: 0.86275 cumulative IPC: 0.51215 (Simulation time: 0 hr 25 min 2 sec) 
Heartbeat CPU  0 instructions:  589000003 cycles: 1003927571 heartbeat IPC: 0.85919 cumulative IPC: 0.51258 (Simulation time: 0 hr 25 min 5 sec) 
Heartbeat CPU  0 instructions:  590000001 cycles: 1005106776 heartbeat IPC: 0.84803 cumulative IPC: 0.51299 (Simulation time: 0 hr 25 min 7 sec) 
Heartbeat CPU  0 instructions:  591000003 cycles: 1006174049 heartbeat IPC: 0.93697 cumulative IPC: 0.51347 (Simulation time: 0 hr 25 min 9 sec) 
Heartbeat CPU  0 instructions:  592000000 cycles: 1007303568 heartbeat IPC: 0.88533 cumulative IPC: 0.51390 (Simulation time: 0 hr 25 min 11 sec) 
Heartbeat CPU  0 instructions:  593000002 cycles: 1008474591 heartbeat IPC: 0.85396 cumulative IPC: 0.51432 (Simulation time: 0 hr 25 min 14 sec) 
Heartbeat CPU  0 instructions:  594000003 cycles: 1009619119 heartbeat IPC: 0.87372 cumulative IPC: 0.51475 (Simulation time: 0 hr 25 min 16 sec) 
Heartbeat CPU  0 instructions:  595000001 cycles: 1010803112 heartbeat IPC: 0.84460 cumulative IPC: 0.51515 (Simulation time: 0 hr 25 min 18 sec) 
Heartbeat CPU  0 instructions:  596000000 cycles: 1011824944 heartbeat IPC: 0.97863 cumulative IPC: 0.51565 (Simulation time: 0 hr 25 min 20 sec) 
Heartbeat CPU  0 instructions:  597000000 cycles: 1012981733 heartbeat IPC: 0.86446 cumulative IPC: 0.51607 (Simulation time: 0 hr 25 min 23 sec) 
Heartbeat CPU  0 instructions:  598000001 cycles: 1014146287 heartbeat IPC: 0.85870 cumulative IPC: 0.51648 (Simulation time: 0 hr 25 min 25 sec) 
Heartbeat CPU  0 instructions:  599000003 cycles: 1015264191 heartbeat IPC: 0.89453 cumulative IPC: 0.51692 (Simulation time: 0 hr 25 min 27 sec) 
Heartbeat CPU  0 instructions:  600000000 cycles: 1016392964 heartbeat IPC: 0.88592 cumulative IPC: 0.51735 (Simulation time: 0 hr 25 min 29 sec) 
Finished CPU 0 instructions: 500000002 cycles: 966467098 cumulative IPC: 0.51735 (Simulation time: 0 hr 25 min 29 sec) 

ChampSim completed all CPUs

[ROI Statistics]
Core_0_instructions 500000002
Core_0_cycles 966467098
Core_0_IPC 0.51735

Core_0_branch_prediction_accuracy 99.14890
Core_0_branch_MPKI 0.20164
Core_0_average_ROB_occupancy_at_mispredict 245.31987

Core_0_L1D_total_access 145575674
Core_0_L1D_total_hit 139946761
Core_0_L1D_total_miss 5628913
Core_0_L1D_loads 134723282
Core_0_L1D_load_hit 130424640
Core_0_L1D_load_miss 4298642
Core_0_L1D_RFOs 10852392
Core_0_L1D_RFO_hit 9522121
Core_0_L1D_RFO_miss 1330271
Core_0_L1D_prefetches 0
Core_0_L1D_prefetch_hit 0
Core_0_L1D_prefetch_miss 0
Core_0_L1D_writebacks 0
Core_0_L1D_writeback_hit 0
Core_0_L1D_writeback_miss 0
Core_0_L1D_prefetch_requested 0
Core_0_L1D_prefetch_dropped 0
Core_0_L1D_prefetch_issued 0
Core_0_L1D_prefetch_filled 0
Core_0_L1D_prefetch_useful 0
Core_0_L1D_prefetch_useless 0
Core_0_L1D_prefetch_late 0
Core_0_L1D_average_miss_latency 558.00704

Core_0_L1D_rq_access 199066320
Core_0_L1D_rq_forward 0
Core_0_L1D_rq_merged 62637780
Core_0_L1D_rq_to_cache 136428540
Core_0_L1D_rq_full 0

Core_0_L1D_wq_access 15945109
Core_0_L1D_wq_forward 0
Core_0_L1D_wq_merged 0
Core_0_L1D_wq_to_cache 15945109
Core_0_L1D_wq_full 4335782

Core_0_L1D_pq_access 0
Core_0_L1D_pq_forward 0
Core_0_L1D_pq_merged 0
Core_0_L1D_pq_to_cache 0
Core_0_L1D_pq_full 0

Core_0_L1D_acc_epochs 988244
Core_0_L1D_acc_level_0 988244
Core_0_L1D_acc_level_1 0
Core_0_L1D_acc_level_2 0
Core_0_L1D_acc_level_3 0
Core_0_L1D_acc_level_4 0
Core_0_L1D_acc_level_5 0
Core_0_L1D_acc_level_6 0
Core_0_L1D_acc_level_7 0
Core_0_L1D_acc_level_8 0
Core_0_L1D_acc_level_9 0

Core_0_L1I_total_access 121161086
Core_0_L1I_total_hit 121160760
Core_0_L1I_total_miss 326
Core_0_L1I_loads 121161086
Core_0_L1I_load_hit 121160760
Core_0_L1I_load_miss 326
Core_0_L1I_RFOs 0
Core_0_L1I_RFO_hit 0
Core_0_L1I_RFO_miss 0
Core_0_L1I_prefetches 0
Core_0_L1I_prefetch_hit 0
Core_0_L1I_prefetch_miss 0
Core_0_L1I_writebacks 0
Core_0_L1I_writeback_hit 0
Core_0_L1I_writeback_miss 0
Core_0_L1I_prefetch_requested 0
Core_0_L1I_prefetch_dropped 0
Core_0_L1I_prefetch_issued 0
Core_0_L1I_prefetch_filled 0
Core_0_L1I_prefetch_useful 0
Core_0_L1I_prefetch_useless 0
Core_0_L1I_prefetch_late 0
Core_0_L1I_average_miss_latency 1314.76687

Core_0_L1I_rq_access 500000003
Core_0_L1I_rq_forward 0
Core_0_L1I_rq_merged 378838169
Core_0_L1I_rq_to_cache 121161834
Core_0_L1I_rq_full 0

Core_0_L1I_wq_access 0
Core_0_L1I_wq_forward 0
Core_0_L1I_wq_merged 0
Core_0_L1I_wq_to_cache 0
Core_0_L1I_wq_full 0

Core_0_L1I_pq_access 0
Core_0_L1I_pq_forward 0
Core_0_L1I_pq_merged 0
Core_0_L1I_pq_to_cache 0
Core_0_L1I_pq_full 0

Core_0_L1I_acc_epochs 988244
Core_0_L1I_acc_level_0 988244
Core_0_L1I_acc_level_1 0
Core_0_L1I_acc_level_2 0
Core_0_L1I_acc_level_3 0
Core_0_L1I_acc_level_4 0
Core_0_L1I_acc_level_5 0
Core_0_L1I_acc_level_6 0
Core_0_L1I_acc_level_7 0
Core_0_L1I_acc_level_8 0
Core_0_L1I_acc_level_9 0

Core_0_L2C_total_access 11485701
Core_0_L2C_total_hit 7453509
Core_0_L2C_total_miss 4032192
Core_0_L2C_loads 4298918
Core_0_L2C_load_hit 2970660
Core_0_L2C_load_miss 1328258
Core_0_L2C_RFOs 1330080
Core_0_L2C_RFO_hit 475002
Core_0_L2C_RFO_miss 855078
Core_0_L2C_prefetches 4116883
Core_0_L2C_prefetch_hit 2269218
Core_0_L2C_prefetch_miss 1847665
Core_0_L2C_writebacks 1739820
Core_0_L2C_writeback_hit 1738629
Core_0_L2C_writeback_miss 1191
Core_0_L2C_prefetch_requested 23913509
Core_0_L2C_prefetch_dropped 4324
Core_0_L2C_prefetch_issued 23909185
Core_0_L2C_prefetch_filled 2165169
Core_0_L2C_prefetch_useful 2149151
Core_0_L2C_prefetch_useless 15947
Core_0_L2C_prefetch_late 272258
Core_0_L2C_average_miss_latency 825.48407

Core_0_L2C_rq_access 5629239
Core_0_L2C_rq_forward 0
Core_0_L2C_rq_merged 0
Core_0_L2C_rq_to_cache 5628998
Core_0_L2C_rq_full 0

Core_0_L2C_wq_access 1739820
Core_0_L2C_wq_forward 327
Core_0_L2C_wq_merged 0
Core_0_L2C_wq_to_cache 1739820
Core_0_L2C_wq_full 0

Core_0_L2C_pq_access 23909185
Core_0_L2C_pq_forward 0
Core_0_L2C_pq_merged 42106
Core_0_L2C_pq_to_cache 23866993
Core_0_L2C_pq_full 0

Core_0_L2C_acc_epochs 988244
Core_0_L2C_acc_level_0 182438
Core_0_L2C_acc_level_1 102335
Core_0_L2C_acc_level_2 92862
Core_0_L2C_acc_level_3 80725
Core_0_L2C_acc_level_4 62337
Core_0_L2C_acc_level_5 92745
Core_0_L2C_acc_level_6 73189
Core_0_L2C_acc_level_7 64058
Core_0_L2C_acc_level_8 63146
Core_0_L2C_acc_level_9 174409

Core_0_LLC_total_access 15814690
Core_0_LLC_total_hit 11853733
Core_0_LLC_total_miss 3960957
Core_0_LLC_loads 1056001
Core_0_LLC_load_hit 872882
Core_0_LLC_load_miss 183119
Core_0_LLC_RFOs 855078
Core_0_LLC_RFO_hit 108872
Core_0_LLC_RFO_miss 746206
Core_0_LLC_prefetches 12809641
Core_0_LLC_prefetch_hit 10352025
Core_0_LLC_prefetch_miss 2457616
Core_0_LLC_writebacks 1093970
Core_0_LLC_writeback_hit 519954
Core_0_LLC_writeback_miss 574016
Core_0_LLC_prefetch_requested 0
Core_0_LLC_prefetch_dropped 0
Core_0_LLC_prefetch_issued 0
Core_0_LLC_prefetch_filled 2917199
Core_0_LLC_prefetch_useful 905288
Core_0_LLC_prefetch_useless 1998521
Core_0_LLC_prefetch_late 113393
Core_0_LLC_average_miss_latency 2657.22332

Core_0_LLC_rq_access 1911079
Core_0_LLC_rq_forward 0
Core_0_LLC_rq_merged 0
Core_0_LLC_rq_to_cache 1911079
Core_0_LLC_rq_full 0

Core_0_LLC_wq_access 1093970
Core_0_LLC_wq_forward 0
Core_0_LLC_wq_merged 0
Core_0_LLC_wq_to_cache 1093970
Core_0_LLC_wq_full 0

Core_0_LLC_pq_access 20764711
Core_0_LLC_pq_forward 0
Core_0_LLC_pq_merged 7413
Core_0_LLC_pq_to_cache 20757298
Core_0_LLC_pq_full 0

Core_0_LLC_acc_epochs 992572
Core_0_LLC_acc_level_0 379733
Core_0_LLC_acc_level_1 159500
Core_0_LLC_acc_level_2 137840
Core_0_LLC_acc_level_3 84742
Core_0_LLC_acc_level_4 42984
Core_0_LLC_acc_level_5 68299
Core_0_LLC_acc_level_6 29784
Core_0_LLC_acc_level_7 18910
Core_0_LLC_acc_level_8 12438
Core_0_LLC_acc_level_9 58342

Core_0_major_page_fault 0
Core_0_minor_page_fault 14851

spp.pref.total 23913509
spp.pref.at_L2 2767657
spp.pref.at_LLC 21145852

spp.depth.max 11
spp.depth.min 0
spp.depth.avg 5

spp.breadth.max 2
spp.breadth.min 0
spp.breadth.avg 0

delta_1 22369074
delta_16 1425633
delta_-15 913277
delta_-31 246953
delta_32 187811
delta_-47 173715
delta_31 69350
delta_-30 25736
delta_-1 10387
delta_-8 4834
delta_3 3657
delta_4 3360
delta_-9 3270
delta_-10 3202
delta_-2 3197
delta_2 3178
delta_19 2199
delta_63 1445
delta_-44 1430
delta_46 1360
delta_15 1270
delta_-3 1237
delta_-45 1164
delta_25 1109
delta_5 987
delta_-4 977
delta_-18 831
delta_-41 750
delta_47 682
delta_-6 648
delta_-7 619
delta_57 568
delta_-48 567
delta_-38 521
delta_29 506
delta_22 452
delta_-37 437
delta_-11 431
delta_-35 431
delta_13 416
delta_-43 395
delta_41 388
delta_34 385
delta_-32 354
delta_-60 317
delta_-14 316
delta_-40 310
delta_48 264
delta_62 232
delta_-61 221
delta_-34 184
delta_-29 176
delta_-21 173
delta_-55 156
delta_6 151
delta_9 148
delta_45 146
delta_50 142
delta_-13 142
delta_-46 138
delta_23 127
delta_-12 119
delta_35 117
delta_-19 117
delta_-5 105
delta_18 104
delta_17 77
delta_-42 65
delta_61 60
delta_10 59
delta_7 30
delta_39 29
delta_12 25
delta_8 24
delta_20 18
delta_42 16
delta_-16 13
delta_-51 5
delta_-24 4
delta_28 3
delta_11 1

depth_1_delta_1 4084473
depth_1_delta_16 367296
depth_1_delta_-15 261079
depth_1_delta_-31 60907
depth_1_delta_32 56446
depth_1_delta_-47 48472
depth_1_delta_31 37333
depth_1_delta_-30 16254
depth_1_delta_-1 8942
depth_1_delta_-9 3100
depth_1_delta_-8 3082
depth_1_delta_3 2981
depth_1_delta_4 2925
depth_1_delta_2 2705
depth_1_delta_-2 2475
depth_1_delta_-10 1979
depth_1_delta_19 1715
depth_1_delta_63 1423
depth_1_delta_46 1235
depth_1_delta_25 1089
depth_1_delta_15 1068
depth_1_delta_-45 1066
depth_1_delta_-44 904
depth_1_delta_-3 864
depth_1_delta_-4 719
depth_1_delta_47 675
depth_1_delta_5 650
depth_1_delta_-6 630
depth_1_delta_-7 608
depth_1_delta_-48 567
depth_1_delta_-18 557
depth_1_delta_57 501
depth_1_delta_-38 495
depth_1_delta_-41 461
depth_1_delta_-11 430
depth_1_delta_-37 421
depth_1_delta_-35 417
depth_1_delta_29 357
depth_1_delta_34 346
depth_1_delta_13 317
depth_1_delta_-60 316
depth_1_delta_41 305
depth_1_delta_-14 297
depth_1_delta_-43 292
depth_1_delta_22 265
depth_1_delta_48 264
depth_1_delta_-40 262
depth_1_delta_-32 258
depth_1_delta_62 225
depth_1_delta_-61 200
depth_1_delta_-34 184
depth_1_delta_-21 168
depth_1_delta_-29 167
depth_1_delta_6 151
depth_1_delta_9 148
depth_1_delta_-46 138
depth_1_delta_50 134
depth_1_delta_-13 122
depth_1_delta_23 118
depth_1_delta_-19 117
depth_1_delta_45 114
depth_1_delta_-55 109
depth_1_delta_-5 105
depth_1_delta_35 103
depth_1_delta_-12 103
depth_1_delta_17 71
depth_1_delta_-42 63
depth_1_delta_61 60
depth_1_delta_10 51
depth_1_delta_7 30
depth_1_delta_39 29
depth_1_delta_18 25
depth_1_delta_8 24
depth_1_delta_12 24
depth_1_delta_20 18
depth_1_delta_42 16
depth_1_delta_-16 13
depth_1_delta_-51 5
depth_1_delta_-24 4
depth_1_delta_28 3
depth_1_delta_11 1
depth_2_delta_1 3864707
depth_2_delta_16 335142
depth_2_delta_-15 223608
depth_2_delta_-31 52870
depth_2_delta_32 48038
depth_2_delta_-47 42528
depth_2_delta_31 16734
depth_2_delta_-30 7428
depth_2_delta_-8 1441
depth_2_delta_-1 1392
depth_2_delta_-10 1080
depth_2_delta_-2 660
depth_2_delta_3 651
depth_2_delta_-44 507
depth_2_delta_2 472
depth_2_delta_19 461
depth_2_delta_-3 350
depth_2_delta_5 336
depth_2_delta_4 326
depth_2_delta_-18 268
depth_2_delta_-4 258
depth_2_delta_-41 257
depth_2_delta_15 202
depth_2_delta_22 186
depth_2_delta_-9 170
depth_2_delta_29 140
depth_2_delta_46 117
depth_2_delta_-43 103
depth_2_delta_13 98
depth_2_delta_-32 86
depth_2_delta_-45 84
depth_2_delta_41 83
depth_2_delta_18 79
depth_2_delta_57 62
depth_2_delta_-55 47
depth_2_delta_34 37
depth_2_delta_45 32
depth_2_delta_-40 31
depth_2_delta_-38 25
depth_2_delta_63 22
depth_2_delta_-61 20
depth_2_delta_-13 20
depth_2_delta_25 20
depth_2_delta_-14 19
depth_2_delta_-6 18
depth_2_delta_-12 16
depth_2_delta_-37 16
depth_2_delta_35 14
depth_2_delta_-35 14
depth_2_delta_-7 11
depth_2_delta_-29 9
depth_2_delta_50 8
depth_2_delta_23 8
depth_2_delta_47 7
depth_2_delta_17 6
depth_2_delta_10 6
depth_2_delta_62 5
depth_2_delta_-21 5
depth_2_delta_-42 2
depth_2_delta_12 1
depth_2_delta_-60 1
depth_2_delta_-11 1
depth_3_delta_1 3621809
depth_3_delta_16 279812
depth_3_delta_-15 175499
depth_3_delta_-31 45491
depth_3_delta_32 37827
depth_3_delta_-47 35733
depth_3_delta_31 10206
depth_3_delta_-30 1730
depth_3_delta_-8 302
depth_3_delta_-10 134
depth_3_delta_4 109
depth_3_delta_-2 59
depth_3_delta_-1 53
depth_3_delta_-41 32
depth_3_delta_3 25
depth_3_delta_-3 23
depth_3_delta_19 20
depth_3_delta_-44 19
depth_3_delta_-40 16
depth_3_delta_-45 11
depth_3_delta_-32 10
depth_3_delta_29 9
depth_3_delta_46 8
depth_3_delta_-18 6
depth_3_delta_57 5
depth_3_delta_34 2
depth_3_delta_10 2
depth_3_delta_62 2
depth_3_delta_2 1
depth_3_delta_-61 1
depth_3_delta_13 1
depth_3_delta_23 1
depth_3_delta_-38 1
depth_3_delta_22 1
depth_3_delta_5 1
depth_4_delta_1 3362742
depth_4_delta_16 221940
depth_4_delta_-15 131725
depth_4_delta_-31 37229
depth_4_delta_-47 28089
depth_4_delta_32 27039
depth_4_delta_31 3938
depth_4_delta_-30 311
depth_4_delta_-8 9
depth_4_delta_-10 9
depth_4_delta_19 3
depth_4_delta_-2 3
depth_4_delta_-45 3
depth_4_delta_-40 1
depth_5_delta_1 2851363
depth_5_delta_16 147762
depth_5_delta_-15 85479
depth_5_delta_-31 31327
depth_5_delta_-47 15189
depth_5_delta_32 14867
depth_5_delta_31 1106
depth_5_delta_-30 12
depth_6_delta_1 2014673
depth_6_delta_16 64693
depth_6_delta_-15 30688
depth_6_delta_-31 16615
depth_6_delta_-47 3560
depth_6_delta_32 3438
depth_6_delta_31 32
depth_6_delta_-30 1
depth_7_delta_1 1235619
depth_7_delta_16 8218
depth_7_delta_-15 4432
depth_7_delta_-31 2474
depth_7_delta_32 156
depth_7_delta_-47 144
depth_7_delta_31 1
depth_8_delta_1 792419
depth_8_delta_16 585
depth_8_delta_-15 556
depth_8_delta_-31 40
depth_9_delta_1 434083
depth_9_delta_-15 186
depth_9_delta_16 166
depth_10_delta_1 106937
depth_10_delta_-15 25
depth_10_delta_16 19
depth_11_delta_1 249

Channel_0_RQ_row_buffer_hit 1092088
Channel_0_RQ_row_buffer_miss 2294501
Channel_0_WQ_row_buffer_hit 212423
Channel_0_WQ_row_buffer_miss 792101
Channel_0_WQ_full 0
Channel_0_dbus_congested 4471201

avg_congested_cycle 201

DRAM_bw_pochs 3970286
DRAM_bw_level_0 2099743
DRAM_bw_level_1 0
DRAM_bw_level_2 0
DRAM_bw_level_3 1870543
