*************************************************
   ChampSim Multicore Out-of-Order Simulator
   Last compiled: Dec 11 2024 17:59:53
*************************************************
parsing config file: /home/functionmain/桌面/Pythia/config/bingo.ini

trace_0 /home/functionmain/桌面/Pythia/traces/437.leslie3d-149B.champsimtrace.xz
adding L2C_PREFETCHER: Bingo
Initialize SHIP state
warmup_instructions 100000000
simulation_instructions 500000000
champsim_seed 224
measure_ipc 0
measure_ipc_epoch 1000
measure_dram_bw 1
measure_dram_bw_epoch 256
measure_cache_acc 1
measure_cache_acc_epoch 1024
l1d_perfect 0
l2c_perfect 0
llc_perfect 0
l1d_semi_perfect 0
l2c_semi_perfect 0
llc_semi_perfect 0
semi_perfect_cache_page_buffer_size 64

num_cpus 1
cpu_freq 4000
dram_io_freq 4800
page_size 4096
block_size 64
max_read_per_cycle 8
max_fill_per_cycle 1
dram_channels 1
log2_dram_channels 0
dram_ranks 1
dram_banks 8
dram_rows 65536
dram_columns 128
dram_row_size 8
dram_size 4096
dram_pages 1048576

fetch_width 6
decode_width 6
exec_width 4
lq_width 2
sq_width 2
retire_width 4
scheduler_size 128
branch_mispredict_penalty 20
rob_size 256
lq_size 72
sq_size 56
num_instr_destinations_sparc 4
num_instr_destinations 2
num_instr_sources 4

itlb_set 16
itlb_way 8
itlb_rq_size 16
itlb_wq_size 16
itlb_pq_size 0
itlb_mshr_size 8
itlb_latency 1

dtlb_set 16
dtlb_way 4
dtlb_rq_size 16
dtlb_wq_size 16
dtlb_pq_size 0
dtlb_mshr_size 8
dtlb_latency 1

stlb_set 128
stlb_way 12
stlb_rq_size 32
stlb_wq_size 32
stlb_pq_size 0
stlb_mshr_size 16
stlb_latency 8

l1i_size 32
l1i_set 64
l1i_way 8
l1i_rq_size 64
l1i_wq_size 64
l1i_pq_size 8
l1i_mshr_size 8
l1i_latency 1

l1d_size 32
l1d_set 64
l1d_way 8
l1d_rq_size 64
l1d_wq_size 64
l1d_pq_size 8
l1d_mshr_size 16
l1d_latency 4

l2c_size 256
l2c_set 512
l2c_way 8
l2c_rq_size 32
l2c_wq_size 32
l2c_pq_size 32
l2c_mshr_size 32
l2c_latency 10

llc_size 2048
llc_set 2048
llc_way 16
llc_rq_size 32
llc_wq_size 32
llc_pq_size 32
llc_mshr_size 64
llc_latency 20

dram_channel_width 8
dram_wq_size 64
dram_rq_size 64
tRP 15
tRCD 15
tCAS 12.5
dram_dbus_turn_around_time 30
dram_write_high_wm 56
dram_write_low_wm 48
min_dram_writes_per_switch 16
dram_mtps 4800
dram_dbus_return_time 6

bingo_region_size 2048
bingo_pattern_len 32
bingo_pc_width 16
bingo_min_addr_width 5
bingo_max_addr_width 16
bingo_ft_size 64
bingo_at_size 128
bingo_pht_size 4096
bingo_pht_ways 16
bingo_pf_streamer_size 128
bingo_debug_level 0
bingo_l1d_thresh 1.01
bingo_l2c_thresh 0.8
bingo_llc_thresh 0.05
bingo_pc_address_fill_level L2


Heartbeat CPU  0 instructions:    1000002 cycles:     502443 heartbeat IPC: 1.99028 cumulative IPC: 1.99028 (Simulation time: 0 hr 0 min 1 sec) 
Heartbeat CPU  0 instructions:    2000001 cycles:     990594 heartbeat IPC: 2.04854 cumulative IPC: 2.01899 (Simulation time: 0 hr 0 min 3 sec) 
Heartbeat CPU  0 instructions:    3000003 cycles:    1492711 heartbeat IPC: 1.99157 cumulative IPC: 2.00977 (Simulation time: 0 hr 0 min 5 sec) 
Heartbeat CPU  0 instructions:    4000000 cycles:    1994642 heartbeat IPC: 1.99230 cumulative IPC: 2.00537 (Simulation time: 0 hr 0 min 7 sec) 
Heartbeat CPU  0 instructions:    5000000 cycles:    2496909 heartbeat IPC: 1.99097 cumulative IPC: 2.00248 (Simulation time: 0 hr 0 min 8 sec) 
Heartbeat CPU  0 instructions:    6000001 cycles:    2996822 heartbeat IPC: 2.00035 cumulative IPC: 2.00212 (Simulation time: 0 hr 0 min 10 sec) 
Heartbeat CPU  0 instructions:    7000000 cycles:    3487003 heartbeat IPC: 2.04006 cumulative IPC: 2.00745 (Simulation time: 0 hr 0 min 12 sec) 
Heartbeat CPU  0 instructions:    8000000 cycles:    3990157 heartbeat IPC: 1.98746 cumulative IPC: 2.00493 (Simulation time: 0 hr 0 min 14 sec) 
Heartbeat CPU  0 instructions:    9000002 cycles:    4492126 heartbeat IPC: 1.99216 cumulative IPC: 2.00351 (Simulation time: 0 hr 0 min 15 sec) 
Heartbeat CPU  0 instructions:   10000000 cycles:    4994191 heartbeat IPC: 1.99177 cumulative IPC: 2.00233 (Simulation time: 0 hr 0 min 17 sec) 
Heartbeat CPU  0 instructions:   11000002 cycles:    5485315 heartbeat IPC: 2.03615 cumulative IPC: 2.00535 (Simulation time: 0 hr 0 min 19 sec) 
Heartbeat CPU  0 instructions:   12000000 cycles:    5984380 heartbeat IPC: 2.00374 cumulative IPC: 2.00522 (Simulation time: 0 hr 0 min 21 sec) 
Heartbeat CPU  0 instructions:   13000002 cycles:    6486916 heartbeat IPC: 1.98991 cumulative IPC: 2.00403 (Simulation time: 0 hr 0 min 22 sec) 
Heartbeat CPU  0 instructions:   14000003 cycles:    6989389 heartbeat IPC: 1.99016 cumulative IPC: 2.00304 (Simulation time: 0 hr 0 min 24 sec) 
Heartbeat CPU  0 instructions:   15000002 cycles:    7491568 heartbeat IPC: 1.99132 cumulative IPC: 2.00225 (Simulation time: 0 hr 0 min 26 sec) 
Heartbeat CPU  0 instructions:   16000000 cycles:    7979131 heartbeat IPC: 2.05101 cumulative IPC: 2.00523 (Simulation time: 0 hr 0 min 28 sec) 
Heartbeat CPU  0 instructions:   17000001 cycles:    8482016 heartbeat IPC: 1.98853 cumulative IPC: 2.00424 (Simulation time: 0 hr 0 min 30 sec) 
Heartbeat CPU  0 instructions:   18000003 cycles:    8985180 heartbeat IPC: 1.98743 cumulative IPC: 2.00330 (Simulation time: 0 hr 0 min 31 sec) 
Heartbeat CPU  0 instructions:   19000003 cycles:    9487508 heartbeat IPC: 1.99073 cumulative IPC: 2.00263 (Simulation time: 0 hr 0 min 33 sec) 
Heartbeat CPU  0 instructions:   20000000 cycles:    9979600 heartbeat IPC: 2.03213 cumulative IPC: 2.00409 (Simulation time: 0 hr 0 min 35 sec) 
Heartbeat CPU  0 instructions:   21000003 cycles:   10477067 heartbeat IPC: 2.01019 cumulative IPC: 2.00438 (Simulation time: 0 hr 0 min 37 sec) 
Heartbeat CPU  0 instructions:   22000001 cycles:   10979879 heartbeat IPC: 1.98881 cumulative IPC: 2.00367 (Simulation time: 0 hr 0 min 38 sec) 
Heartbeat CPU  0 instructions:   23000002 cycles:   11482526 heartbeat IPC: 1.98947 cumulative IPC: 2.00304 (Simulation time: 0 hr 0 min 40 sec) 
Heartbeat CPU  0 instructions:   24000000 cycles:   11984661 heartbeat IPC: 1.99149 cumulative IPC: 2.00256 (Simulation time: 0 hr 0 min 42 sec) 
Heartbeat CPU  0 instructions:   25000002 cycles:   12472233 heartbeat IPC: 2.05098 cumulative IPC: 2.00445 (Simulation time: 0 hr 0 min 44 sec) 
Heartbeat CPU  0 instructions:   26000002 cycles:   12974128 heartbeat IPC: 1.99245 cumulative IPC: 2.00399 (Simulation time: 0 hr 0 min 45 sec) 
Heartbeat CPU  0 instructions:   27000001 cycles:   13476518 heartbeat IPC: 1.99048 cumulative IPC: 2.00348 (Simulation time: 0 hr 0 min 47 sec) 
Heartbeat CPU  0 instructions:   28000000 cycles:   13979215 heartbeat IPC: 1.98927 cumulative IPC: 2.00297 (Simulation time: 0 hr 0 min 49 sec) 
Heartbeat CPU  0 instructions:   29000003 cycles:   14474260 heartbeat IPC: 2.02002 cumulative IPC: 2.00356 (Simulation time: 0 hr 0 min 51 sec) 
Heartbeat CPU  0 instructions:   30000003 cycles:   14969007 heartbeat IPC: 2.02123 cumulative IPC: 2.00414 (Simulation time: 0 hr 0 min 52 sec) 
Heartbeat CPU  0 instructions:   31000001 cycles:   15471225 heartbeat IPC: 1.99116 cumulative IPC: 2.00372 (Simulation time: 0 hr 0 min 54 sec) 
Heartbeat CPU  0 instructions:   32000000 cycles:   15973569 heartbeat IPC: 1.99067 cumulative IPC: 2.00331 (Simulation time: 0 hr 0 min 56 sec) 
Heartbeat CPU  0 instructions:   33000000 cycles:   16476057 heartbeat IPC: 1.99010 cumulative IPC: 2.00291 (Simulation time: 0 hr 0 min 58 sec) 
Heartbeat CPU  0 instructions:   34000003 cycles:   16963971 heartbeat IPC: 2.04955 cumulative IPC: 2.00425 (Simulation time: 0 hr 0 min 59 sec) 
Heartbeat CPU  0 instructions:   35000003 cycles:   17466020 heartbeat IPC: 1.99184 cumulative IPC: 2.00389 (Simulation time: 0 hr 1 min 1 sec) 
Heartbeat CPU  0 instructions:   36000000 cycles:   17968096 heartbeat IPC: 1.99172 cumulative IPC: 2.00355 (Simulation time: 0 hr 1 min 3 sec) 
Heartbeat CPU  0 instructions:   37000001 cycles:   18471198 heartbeat IPC: 1.98767 cumulative IPC: 2.00312 (Simulation time: 0 hr 1 min 5 sec) 
Heartbeat CPU  0 instructions:   38000003 cycles:   18968875 heartbeat IPC: 2.00934 cumulative IPC: 2.00328 (Simulation time: 0 hr 1 min 6 sec) 
Heartbeat CPU  0 instructions:   39000001 cycles:   19461606 heartbeat IPC: 2.02950 cumulative IPC: 2.00395 (Simulation time: 0 hr 1 min 8 sec) 
Heartbeat CPU  0 instructions:   40000000 cycles:   19963829 heartbeat IPC: 1.99115 cumulative IPC: 2.00362 (Simulation time: 0 hr 1 min 10 sec) 
Heartbeat CPU  0 instructions:   41000002 cycles:   20466244 heartbeat IPC: 1.99039 cumulative IPC: 2.00330 (Simulation time: 0 hr 1 min 12 sec) 
Heartbeat CPU  0 instructions:   42000000 cycles:   20968930 heartbeat IPC: 1.98931 cumulative IPC: 2.00296 (Simulation time: 0 hr 1 min 14 sec) 
Heartbeat CPU  0 instructions:   43000000 cycles:   21457034 heartbeat IPC: 2.04874 cumulative IPC: 2.00400 (Simulation time: 0 hr 1 min 15 sec) 
Heartbeat CPU  0 instructions:   44000000 cycles:   21959394 heartbeat IPC: 1.99060 cumulative IPC: 2.00370 (Simulation time: 0 hr 1 min 17 sec) 
Heartbeat CPU  0 instructions:   45000002 cycles:   22462147 heartbeat IPC: 1.98905 cumulative IPC: 2.00337 (Simulation time: 0 hr 1 min 19 sec) 
Heartbeat CPU  0 instructions:   46000003 cycles:   22964044 heartbeat IPC: 1.99244 cumulative IPC: 2.00313 (Simulation time: 0 hr 1 min 21 sec) 
Heartbeat CPU  0 instructions:   47000000 cycles:   23463122 heartbeat IPC: 2.00369 cumulative IPC: 2.00314 (Simulation time: 0 hr 1 min 22 sec) 
Heartbeat CPU  0 instructions:   48000000 cycles:   23954223 heartbeat IPC: 2.03624 cumulative IPC: 2.00382 (Simulation time: 0 hr 1 min 24 sec) 
Heartbeat CPU  0 instructions:   49000002 cycles:   24457072 heartbeat IPC: 1.98867 cumulative IPC: 2.00351 (Simulation time: 0 hr 1 min 26 sec) 
Heartbeat CPU  0 instructions:   50000003 cycles:   24959524 heartbeat IPC: 1.99024 cumulative IPC: 2.00324 (Simulation time: 0 hr 1 min 28 sec) 
Heartbeat CPU  0 instructions:   51000001 cycles:   25461498 heartbeat IPC: 1.99213 cumulative IPC: 2.00302 (Simulation time: 0 hr 1 min 30 sec) 
Heartbeat CPU  0 instructions:   52000000 cycles:   25951670 heartbeat IPC: 2.04010 cumulative IPC: 2.00372 (Simulation time: 0 hr 1 min 31 sec) 
Heartbeat CPU  0 instructions:   53000003 cycles:   26451556 heartbeat IPC: 2.00046 cumulative IPC: 2.00366 (Simulation time: 0 hr 1 min 33 sec) 
Heartbeat CPU  0 instructions:   54000003 cycles:   26963057 heartbeat IPC: 1.95503 cumulative IPC: 2.00274 (Simulation time: 0 hr 1 min 35 sec) 
Heartbeat CPU  0 instructions:   55000001 cycles:   27482957 heartbeat IPC: 1.92344 cumulative IPC: 2.00124 (Simulation time: 0 hr 1 min 37 sec) 
Heartbeat CPU  0 instructions:   56000000 cycles:   27995649 heartbeat IPC: 1.95049 cumulative IPC: 2.00031 (Simulation time: 0 hr 1 min 38 sec) 
Heartbeat CPU  0 instructions:   57000000 cycles:   28507548 heartbeat IPC: 1.95351 cumulative IPC: 1.99947 (Simulation time: 0 hr 1 min 40 sec) 
Heartbeat CPU  0 instructions:   58000002 cycles:   29021449 heartbeat IPC: 1.94590 cumulative IPC: 1.99852 (Simulation time: 0 hr 1 min 41 sec) 
Heartbeat CPU  0 instructions:   59000003 cycles:   29532874 heartbeat IPC: 1.95532 cumulative IPC: 1.99777 (Simulation time: 0 hr 1 min 43 sec) 
Heartbeat CPU  0 instructions:   60000000 cycles:   30043389 heartbeat IPC: 1.95880 cumulative IPC: 1.99711 (Simulation time: 0 hr 1 min 45 sec) 
Heartbeat CPU  0 instructions:   61000001 cycles:   30555891 heartbeat IPC: 1.95121 cumulative IPC: 1.99634 (Simulation time: 0 hr 1 min 46 sec) 
Heartbeat CPU  0 instructions:   62000003 cycles:   31068504 heartbeat IPC: 1.95079 cumulative IPC: 1.99559 (Simulation time: 0 hr 1 min 48 sec) 
Heartbeat CPU  0 instructions:   63000001 cycles:   31580381 heartbeat IPC: 1.95359 cumulative IPC: 1.99491 (Simulation time: 0 hr 1 min 50 sec) 
Heartbeat CPU  0 instructions:   64000000 cycles:   32093727 heartbeat IPC: 1.94800 cumulative IPC: 1.99416 (Simulation time: 0 hr 1 min 51 sec) 
Heartbeat CPU  0 instructions:   65000000 cycles:   32607091 heartbeat IPC: 1.94794 cumulative IPC: 1.99343 (Simulation time: 0 hr 1 min 53 sec) 
Heartbeat CPU  0 instructions:   66000002 cycles:   33118979 heartbeat IPC: 1.95356 cumulative IPC: 1.99282 (Simulation time: 0 hr 1 min 54 sec) 
Heartbeat CPU  0 instructions:   67000002 cycles:   33632298 heartbeat IPC: 1.94811 cumulative IPC: 1.99213 (Simulation time: 0 hr 1 min 56 sec) 
Heartbeat CPU  0 instructions:   68000000 cycles:   34145466 heartbeat IPC: 1.94868 cumulative IPC: 1.99148 (Simulation time: 0 hr 1 min 58 sec) 
Heartbeat CPU  0 instructions:   69000001 cycles:   34657052 heartbeat IPC: 1.95471 cumulative IPC: 1.99094 (Simulation time: 0 hr 1 min 59 sec) 
Heartbeat CPU  0 instructions:   70000003 cycles:   35169934 heartbeat IPC: 1.94977 cumulative IPC: 1.99034 (Simulation time: 0 hr 2 min 1 sec) 
Heartbeat CPU  0 instructions:   71000002 cycles:   35682738 heartbeat IPC: 1.95006 cumulative IPC: 1.98976 (Simulation time: 0 hr 2 min 3 sec) 
Heartbeat CPU  0 instructions:   72000000 cycles:   36194191 heartbeat IPC: 1.95521 cumulative IPC: 1.98927 (Simulation time: 0 hr 2 min 4 sec) 
Heartbeat CPU  0 instructions:   73000003 cycles:   36706579 heartbeat IPC: 1.95165 cumulative IPC: 1.98874 (Simulation time: 0 hr 2 min 6 sec) 
Heartbeat CPU  0 instructions:   74000001 cycles:   37219201 heartbeat IPC: 1.95075 cumulative IPC: 1.98822 (Simulation time: 0 hr 2 min 8 sec) 
Heartbeat CPU  0 instructions:   75000001 cycles:   37731120 heartbeat IPC: 1.95343 cumulative IPC: 1.98775 (Simulation time: 0 hr 2 min 9 sec) 
Heartbeat CPU  0 instructions:   76000000 cycles:   38243821 heartbeat IPC: 1.95045 cumulative IPC: 1.98725 (Simulation time: 0 hr 2 min 11 sec) 
Heartbeat CPU  0 instructions:   77000001 cycles:   38757333 heartbeat IPC: 1.94738 cumulative IPC: 1.98672 (Simulation time: 0 hr 2 min 12 sec) 
Heartbeat CPU  0 instructions:   78000003 cycles:   39269390 heartbeat IPC: 1.95291 cumulative IPC: 1.98628 (Simulation time: 0 hr 2 min 14 sec) 
Heartbeat CPU  0 instructions:   79000000 cycles:   39781991 heartbeat IPC: 1.95083 cumulative IPC: 1.98582 (Simulation time: 0 hr 2 min 16 sec) 
Heartbeat CPU  0 instructions:   80000000 cycles:   40295403 heartbeat IPC: 1.94775 cumulative IPC: 1.98534 (Simulation time: 0 hr 2 min 17 sec) 
Heartbeat CPU  0 instructions:   81000000 cycles:   40807441 heartbeat IPC: 1.95298 cumulative IPC: 1.98493 (Simulation time: 0 hr 2 min 19 sec) 
Heartbeat CPU  0 instructions:   82000001 cycles:   41319742 heartbeat IPC: 1.95198 cumulative IPC: 1.98452 (Simulation time: 0 hr 2 min 21 sec) 
Heartbeat CPU  0 instructions:   83000001 cycles:   41833346 heartbeat IPC: 1.94703 cumulative IPC: 1.98406 (Simulation time: 0 hr 2 min 22 sec) 
Heartbeat CPU  0 instructions:   84000000 cycles:   42345240 heartbeat IPC: 1.95353 cumulative IPC: 1.98369 (Simulation time: 0 hr 2 min 24 sec) 
Heartbeat CPU  0 instructions:   85000001 cycles:   42857320 heartbeat IPC: 1.95282 cumulative IPC: 1.98333 (Simulation time: 0 hr 2 min 25 sec) 
Heartbeat CPU  0 instructions:   86000002 cycles:   43370778 heartbeat IPC: 1.94758 cumulative IPC: 1.98290 (Simulation time: 0 hr 2 min 27 sec) 
Heartbeat CPU  0 instructions:   87000003 cycles:   43882542 heartbeat IPC: 1.95403 cumulative IPC: 1.98257 (Simulation time: 0 hr 2 min 29 sec) 
Heartbeat CPU  0 instructions:   88000000 cycles:   44394665 heartbeat IPC: 1.95265 cumulative IPC: 1.98222 (Simulation time: 0 hr 2 min 30 sec) 
Heartbeat CPU  0 instructions:   89000002 cycles:   44908393 heartbeat IPC: 1.94656 cumulative IPC: 1.98181 (Simulation time: 0 hr 2 min 32 sec) 
Heartbeat CPU  0 instructions:   90000003 cycles:   45420495 heartbeat IPC: 1.95274 cumulative IPC: 1.98148 (Simulation time: 0 hr 2 min 34 sec) 
Heartbeat CPU  0 instructions:   91000002 cycles:   45931260 heartbeat IPC: 1.95785 cumulative IPC: 1.98122 (Simulation time: 0 hr 2 min 35 sec) 
Heartbeat CPU  0 instructions:   92000000 cycles:   46443838 heartbeat IPC: 1.95092 cumulative IPC: 1.98089 (Simulation time: 0 hr 2 min 37 sec) 
Heartbeat CPU  0 instructions:   93000001 cycles:   46955052 heartbeat IPC: 1.95613 cumulative IPC: 1.98062 (Simulation time: 0 hr 2 min 39 sec) 
Heartbeat CPU  0 instructions:   94000003 cycles:   47466612 heartbeat IPC: 1.95481 cumulative IPC: 1.98034 (Simulation time: 0 hr 2 min 40 sec) 
Heartbeat CPU  0 instructions:   95000003 cycles:   47980395 heartbeat IPC: 1.94635 cumulative IPC: 1.97998 (Simulation time: 0 hr 2 min 42 sec) 
Heartbeat CPU  0 instructions:   96000000 cycles:   48492774 heartbeat IPC: 1.95167 cumulative IPC: 1.97968 (Simulation time: 0 hr 2 min 43 sec) 
Heartbeat CPU  0 instructions:   97000002 cycles:   49004273 heartbeat IPC: 1.95504 cumulative IPC: 1.97942 (Simulation time: 0 hr 2 min 45 sec) 
Heartbeat CPU  0 instructions:   98000000 cycles:   49517396 heartbeat IPC: 1.94885 cumulative IPC: 1.97910 (Simulation time: 0 hr 2 min 47 sec) 
Heartbeat CPU  0 instructions:   99000000 cycles:   50029385 heartbeat IPC: 1.95317 cumulative IPC: 1.97884 (Simulation time: 0 hr 2 min 48 sec) 
Heartbeat CPU  0 instructions:  100000000 cycles:   50566236 heartbeat IPC: 1.86271 cumulative IPC: 1.97760 (Simulation time: 0 hr 2 min 50 sec) 

Warmup complete CPU  0 instructions:  100000001 cycles:   50566257 (Simulation time: 0 hr 2 min 50 sec) 

Heartbeat CPU  0 instructions:  101000003 cycles:   52483448 heartbeat IPC: 0.52159 cumulative IPC: 0.52160 (Simulation time: 0 hr 2 min 53 sec) 
Heartbeat CPU  0 instructions:  102000000 cycles:   55597162 heartbeat IPC: 0.32116 cumulative IPC: 0.39754 (Simulation time: 0 hr 2 min 57 sec) 
Heartbeat CPU  0 instructions:  103000002 cycles:   57693043 heartbeat IPC: 0.47713 cumulative IPC: 0.42095 (Simulation time: 0 hr 3 min 0 sec) 
Heartbeat CPU  0 instructions:  104000000 cycles:   58690917 heartbeat IPC: 1.00213 cumulative IPC: 0.49233 (Simulation time: 0 hr 3 min 2 sec) 
Heartbeat CPU  0 instructions:  105000002 cycles:   59450696 heartbeat IPC: 1.31617 cumulative IPC: 0.56278 (Simulation time: 0 hr 3 min 4 sec) 
Heartbeat CPU  0 instructions:  106000003 cycles:   60215895 heartbeat IPC: 1.30685 cumulative IPC: 0.62179 (Simulation time: 0 hr 3 min 6 sec) 
Heartbeat CPU  0 instructions:  107000000 cycles:   60980330 heartbeat IPC: 1.30815 cumulative IPC: 0.67217 (Simulation time: 0 hr 3 min 8 sec) 
Heartbeat CPU  0 instructions:  108000000 cycles:   61737704 heartbeat IPC: 1.32035 cumulative IPC: 0.71611 (Simulation time: 0 hr 3 min 10 sec) 
Heartbeat CPU  0 instructions:  109000001 cycles:   62502892 heartbeat IPC: 1.30687 cumulative IPC: 0.75398 (Simulation time: 0 hr 3 min 12 sec) 
Heartbeat CPU  0 instructions:  110000001 cycles:   63552623 heartbeat IPC: 0.95262 cumulative IPC: 0.77004 (Simulation time: 0 hr 3 min 15 sec) 
Heartbeat CPU  0 instructions:  111000001 cycles:   64428920 heartbeat IPC: 1.14117 cumulative IPC: 0.79350 (Simulation time: 0 hr 3 min 17 sec) 
Heartbeat CPU  0 instructions:  112000000 cycles:   65224338 heartbeat IPC: 1.25720 cumulative IPC: 0.81866 (Simulation time: 0 hr 3 min 19 sec) 
Heartbeat CPU  0 instructions:  113000003 cycles:   66018248 heartbeat IPC: 1.25959 cumulative IPC: 0.84132 (Simulation time: 0 hr 3 min 21 sec) 
Heartbeat CPU  0 instructions:  114000001 cycles:   66801664 heartbeat IPC: 1.27646 cumulative IPC: 0.86231 (Simulation time: 0 hr 3 min 23 sec) 
Heartbeat CPU  0 instructions:  115000003 cycles:   67591339 heartbeat IPC: 1.26635 cumulative IPC: 0.88105 (Simulation time: 0 hr 3 min 25 sec) 
Heartbeat CPU  0 instructions:  116000000 cycles:   68463335 heartbeat IPC: 1.14679 cumulative IPC: 0.89400 (Simulation time: 0 hr 3 min 27 sec) 
Heartbeat CPU  0 instructions:  117000000 cycles:   69482485 heartbeat IPC: 0.98121 cumulative IPC: 0.89870 (Simulation time: 0 hr 3 min 29 sec) 
Heartbeat CPU  0 instructions:  118000003 cycles:   70302241 heartbeat IPC: 1.21988 cumulative IPC: 0.91204 (Simulation time: 0 hr 3 min 32 sec) 
Heartbeat CPU  0 instructions:  119000000 cycles:   71118608 heartbeat IPC: 1.22494 cumulative IPC: 0.92447 (Simulation time: 0 hr 3 min 34 sec) 
Heartbeat CPU  0 instructions:  120000000 cycles:   71937605 heartbeat IPC: 1.22101 cumulative IPC: 0.93583 (Simulation time: 0 hr 3 min 36 sec) 
Heartbeat CPU  0 instructions:  121000001 cycles:   72752766 heartbeat IPC: 1.22675 cumulative IPC: 0.94652 (Simulation time: 0 hr 3 min 38 sec) 
Heartbeat CPU  0 instructions:  122000002 cycles:   73569083 heartbeat IPC: 1.22502 cumulative IPC: 0.95640 (Simulation time: 0 hr 3 min 40 sec) 
Heartbeat CPU  0 instructions:  123000000 cycles:   74387290 heartbeat IPC: 1.22218 cumulative IPC: 0.96553 (Simulation time: 0 hr 3 min 42 sec) 
Heartbeat CPU  0 instructions:  124000000 cycles:   75203640 heartbeat IPC: 1.22496 cumulative IPC: 0.97413 (Simulation time: 0 hr 3 min 44 sec) 
Heartbeat CPU  0 instructions:  125000002 cycles:   76019464 heartbeat IPC: 1.22576 cumulative IPC: 0.98219 (Simulation time: 0 hr 3 min 46 sec) 
Heartbeat CPU  0 instructions:  126000001 cycles:   76836849 heartbeat IPC: 1.22341 cumulative IPC: 0.98970 (Simulation time: 0 hr 3 min 48 sec) 
Heartbeat CPU  0 instructions:  127000003 cycles:   77654340 heartbeat IPC: 1.22326 cumulative IPC: 0.99675 (Simulation time: 0 hr 3 min 50 sec) 
Heartbeat CPU  0 instructions:  128000000 cycles:   78470506 heartbeat IPC: 1.22524 cumulative IPC: 1.00343 (Simulation time: 0 hr 3 min 52 sec) 
Heartbeat CPU  0 instructions:  129000001 cycles:   79285614 heartbeat IPC: 1.22683 cumulative IPC: 1.00977 (Simulation time: 0 hr 3 min 54 sec) 
Heartbeat CPU  0 instructions:  130000003 cycles:   80126424 heartbeat IPC: 1.18933 cumulative IPC: 1.01488 (Simulation time: 0 hr 3 min 56 sec) 
Heartbeat CPU  0 instructions:  131000000 cycles:   80941575 heartbeat IPC: 1.22676 cumulative IPC: 1.02057 (Simulation time: 0 hr 3 min 58 sec) 
Heartbeat CPU  0 instructions:  132000000 cycles:   81756164 heartbeat IPC: 1.22761 cumulative IPC: 1.02597 (Simulation time: 0 hr 4 min 0 sec) 
Heartbeat CPU  0 instructions:  133000000 cycles:   82570905 heartbeat IPC: 1.22738 cumulative IPC: 1.03110 (Simulation time: 0 hr 4 min 2 sec) 
Heartbeat CPU  0 instructions:  134000003 cycles:   83386715 heartbeat IPC: 1.22578 cumulative IPC: 1.03594 (Simulation time: 0 hr 4 min 4 sec) 
Heartbeat CPU  0 instructions:  135000003 cycles:   84202082 heartbeat IPC: 1.22644 cumulative IPC: 1.04056 (Simulation time: 0 hr 4 min 6 sec) 
Heartbeat CPU  0 instructions:  136000000 cycles:   85016118 heartbeat IPC: 1.22844 cumulative IPC: 1.04500 (Simulation time: 0 hr 4 min 8 sec) 
Heartbeat CPU  0 instructions:  137000003 cycles:   85832030 heartbeat IPC: 1.22563 cumulative IPC: 1.04918 (Simulation time: 0 hr 4 min 10 sec) 
Heartbeat CPU  0 instructions:  138000002 cycles:   86646349 heartbeat IPC: 1.22802 cumulative IPC: 1.05321 (Simulation time: 0 hr 4 min 12 sec) 
Heartbeat CPU  0 instructions:  139000002 cycles:   87461411 heartbeat IPC: 1.22690 cumulative IPC: 1.05705 (Simulation time: 0 hr 4 min 14 sec) 
Heartbeat CPU  0 instructions:  140000000 cycles:   88274882 heartbeat IPC: 1.22930 cumulative IPC: 1.06077 (Simulation time: 0 hr 4 min 16 sec) 
Heartbeat CPU  0 instructions:  141000000 cycles:   89096499 heartbeat IPC: 1.21711 cumulative IPC: 1.06410 (Simulation time: 0 hr 4 min 18 sec) 
Heartbeat CPU  0 instructions:  142000000 cycles:   89917450 heartbeat IPC: 1.21810 cumulative IPC: 1.06731 (Simulation time: 0 hr 4 min 20 sec) 
Heartbeat CPU  0 instructions:  143000003 cycles:   90737324 heartbeat IPC: 1.21970 cumulative IPC: 1.07042 (Simulation time: 0 hr 4 min 22 sec) 
Heartbeat CPU  0 instructions:  144000000 cycles:   91557848 heartbeat IPC: 1.21873 cumulative IPC: 1.07339 (Simulation time: 0 hr 4 min 24 sec) 
Heartbeat CPU  0 instructions:  145000001 cycles:   92403902 heartbeat IPC: 1.18196 cumulative IPC: 1.07559 (Simulation time: 0 hr 4 min 26 sec) 
Heartbeat CPU  0 instructions:  146000003 cycles:   93217907 heartbeat IPC: 1.22850 cumulative IPC: 1.07850 (Simulation time: 0 hr 4 min 28 sec) 
Heartbeat CPU  0 instructions:  147000000 cycles:   94037827 heartbeat IPC: 1.21963 cumulative IPC: 1.08117 (Simulation time: 0 hr 4 min 30 sec) 
Heartbeat CPU  0 instructions:  148000000 cycles:   94860337 heartbeat IPC: 1.21579 cumulative IPC: 1.08367 (Simulation time: 0 hr 4 min 32 sec) 
Heartbeat CPU  0 instructions:  149000003 cycles:   95683126 heartbeat IPC: 1.21538 cumulative IPC: 1.08607 (Simulation time: 0 hr 4 min 34 sec) 
Heartbeat CPU  0 instructions:  150000003 cycles:   96502807 heartbeat IPC: 1.21999 cumulative IPC: 1.08846 (Simulation time: 0 hr 4 min 36 sec) 
Heartbeat CPU  0 instructions:  151000000 cycles:   97320922 heartbeat IPC: 1.22232 cumulative IPC: 1.09080 (Simulation time: 0 hr 4 min 38 sec) 
Heartbeat CPU  0 instructions:  152000000 cycles:   98144009 heartbeat IPC: 1.21494 cumulative IPC: 1.09295 (Simulation time: 0 hr 4 min 40 sec) 
Heartbeat CPU  0 instructions:  153000002 cycles:   98964159 heartbeat IPC: 1.21929 cumulative IPC: 1.09509 (Simulation time: 0 hr 4 min 43 sec) 
Heartbeat CPU  0 instructions:  154000002 cycles:   99783031 heartbeat IPC: 1.22119 cumulative IPC: 1.09719 (Simulation time: 0 hr 4 min 45 sec) 
Heartbeat CPU  0 instructions:  155000001 cycles:  100603205 heartbeat IPC: 1.21925 cumulative IPC: 1.09919 (Simulation time: 0 hr 4 min 47 sec) 
Heartbeat CPU  0 instructions:  156000000 cycles:  101421053 heartbeat IPC: 1.22272 cumulative IPC: 1.10117 (Simulation time: 0 hr 4 min 49 sec) 
Heartbeat CPU  0 instructions:  157000000 cycles:  102238369 heartbeat IPC: 1.22352 cumulative IPC: 1.10311 (Simulation time: 0 hr 4 min 51 sec) 
Heartbeat CPU  0 instructions:  158000001 cycles:  103059723 heartbeat IPC: 1.21750 cumulative IPC: 1.10490 (Simulation time: 0 hr 4 min 53 sec) 
Heartbeat CPU  0 instructions:  159000003 cycles:  103894140 heartbeat IPC: 1.19844 cumulative IPC: 1.10636 (Simulation time: 0 hr 4 min 55 sec) 
Heartbeat CPU  0 instructions:  160000000 cycles:  104708015 heartbeat IPC: 1.22869 cumulative IPC: 1.10820 (Simulation time: 0 hr 4 min 57 sec) 
Heartbeat CPU  0 instructions:  161000001 cycles:  105522490 heartbeat IPC: 1.22779 cumulative IPC: 1.10997 (Simulation time: 0 hr 4 min 59 sec) 
Heartbeat CPU  0 instructions:  162000000 cycles:  106337309 heartbeat IPC: 1.22727 cumulative IPC: 1.11169 (Simulation time: 0 hr 5 min 1 sec) 
Heartbeat CPU  0 instructions:  163000003 cycles:  107153304 heartbeat IPC: 1.22550 cumulative IPC: 1.11333 (Simulation time: 0 hr 5 min 3 sec) 
Heartbeat CPU  0 instructions:  164000000 cycles:  107968725 heartbeat IPC: 1.22636 cumulative IPC: 1.11493 (Simulation time: 0 hr 5 min 5 sec) 
Heartbeat CPU  0 instructions:  165000000 cycles:  108783362 heartbeat IPC: 1.22754 cumulative IPC: 1.11651 (Simulation time: 0 hr 5 min 7 sec) 
Heartbeat CPU  0 instructions:  166000000 cycles:  109598625 heartbeat IPC: 1.22660 cumulative IPC: 1.11803 (Simulation time: 0 hr 5 min 9 sec) 
Heartbeat CPU  0 instructions:  167000003 cycles:  110411704 heartbeat IPC: 1.22990 cumulative IPC: 1.11955 (Simulation time: 0 hr 5 min 11 sec) 
Heartbeat CPU  0 instructions:  168000000 cycles:  111226431 heartbeat IPC: 1.22740 cumulative IPC: 1.12100 (Simulation time: 0 hr 5 min 13 sec) 
Heartbeat CPU  0 instructions:  169000003 cycles:  112041510 heartbeat IPC: 1.22688 cumulative IPC: 1.12240 (Simulation time: 0 hr 5 min 15 sec) 
Heartbeat CPU  0 instructions:  170000001 cycles:  112856437 heartbeat IPC: 1.22710 cumulative IPC: 1.12377 (Simulation time: 0 hr 5 min 17 sec) 
Heartbeat CPU  0 instructions:  171000002 cycles:  113671377 heartbeat IPC: 1.22709 cumulative IPC: 1.12511 (Simulation time: 0 hr 5 min 19 sec) 
Heartbeat CPU  0 instructions:  172000000 cycles:  114484499 heartbeat IPC: 1.22983 cumulative IPC: 1.12644 (Simulation time: 0 hr 5 min 21 sec) 
Heartbeat CPU  0 instructions:  173000002 cycles:  115323030 heartbeat IPC: 1.19256 cumulative IPC: 1.12730 (Simulation time: 0 hr 5 min 23 sec) 
Heartbeat CPU  0 instructions:  174000000 cycles:  116138731 heartbeat IPC: 1.22594 cumulative IPC: 1.12852 (Simulation time: 0 hr 5 min 25 sec) 
Heartbeat CPU  0 instructions:  175000001 cycles:  116952316 heartbeat IPC: 1.22913 cumulative IPC: 1.12976 (Simulation time: 0 hr 5 min 27 sec) 
Heartbeat CPU  0 instructions:  176000000 cycles:  117766732 heartbeat IPC: 1.22787 cumulative IPC: 1.13094 (Simulation time: 0 hr 5 min 29 sec) 
Heartbeat CPU  0 instructions:  177000000 cycles:  118581057 heartbeat IPC: 1.22801 cumulative IPC: 1.13211 (Simulation time: 0 hr 5 min 31 sec) 
Heartbeat CPU  0 instructions:  178000003 cycles:  119396730 heartbeat IPC: 1.22599 cumulative IPC: 1.13322 (Simulation time: 0 hr 5 min 33 sec) 
Heartbeat CPU  0 instructions:  179000000 cycles:  120212081 heartbeat IPC: 1.22646 cumulative IPC: 1.13431 (Simulation time: 0 hr 5 min 35 sec) 
Heartbeat CPU  0 instructions:  180000000 cycles:  121026229 heartbeat IPC: 1.22828 cumulative IPC: 1.13540 (Simulation time: 0 hr 5 min 37 sec) 
Heartbeat CPU  0 instructions:  181000003 cycles:  121840641 heartbeat IPC: 1.22788 cumulative IPC: 1.13645 (Simulation time: 0 hr 5 min 39 sec) 
Heartbeat CPU  0 instructions:  182000003 cycles:  122655424 heartbeat IPC: 1.22732 cumulative IPC: 1.13748 (Simulation time: 0 hr 5 min 41 sec) 
Heartbeat CPU  0 instructions:  183000003 cycles:  123468664 heartbeat IPC: 1.22965 cumulative IPC: 1.13851 (Simulation time: 0 hr 5 min 43 sec) 
Heartbeat CPU  0 instructions:  184000000 cycles:  124285587 heartbeat IPC: 1.22410 cumulative IPC: 1.13946 (Simulation time: 0 hr 5 min 45 sec) 
Heartbeat CPU  0 instructions:  185000002 cycles:  125101025 heartbeat IPC: 1.22634 cumulative IPC: 1.14041 (Simulation time: 0 hr 5 min 47 sec) 
Heartbeat CPU  0 instructions:  186000002 cycles:  125920952 heartbeat IPC: 1.21962 cumulative IPC: 1.14127 (Simulation time: 0 hr 5 min 49 sec) 
Heartbeat CPU  0 instructions:  187000001 cycles:  127624219 heartbeat IPC: 0.58711 cumulative IPC: 1.12902 (Simulation time: 0 hr 5 min 52 sec) 
Heartbeat CPU  0 instructions:  188000000 cycles:  128506003 heartbeat IPC: 1.13406 cumulative IPC: 1.12908 (Simulation time: 0 hr 5 min 54 sec) 
Heartbeat CPU  0 instructions:  189000000 cycles:  129386158 heartbeat IPC: 1.13616 cumulative IPC: 1.12916 (Simulation time: 0 hr 5 min 56 sec) 
Heartbeat CPU  0 instructions:  190000000 cycles:  130267224 heartbeat IPC: 1.13499 cumulative IPC: 1.12922 (Simulation time: 0 hr 5 min 58 sec) 
Heartbeat CPU  0 instructions:  191000003 cycles:  131150952 heartbeat IPC: 1.13157 cumulative IPC: 1.12925 (Simulation time: 0 hr 5 min 59 sec) 
Heartbeat CPU  0 instructions:  192000000 cycles:  132034767 heartbeat IPC: 1.13146 cumulative IPC: 1.12927 (Simulation time: 0 hr 6 min 1 sec) 
Heartbeat CPU  0 instructions:  193000003 cycles:  132916498 heartbeat IPC: 1.13414 cumulative IPC: 1.12932 (Simulation time: 0 hr 6 min 3 sec) 
Heartbeat CPU  0 instructions:  194000001 cycles:  133800789 heartbeat IPC: 1.13085 cumulative IPC: 1.12934 (Simulation time: 0 hr 6 min 5 sec) 
Heartbeat CPU  0 instructions:  195000000 cycles:  134825765 heartbeat IPC: 0.97563 cumulative IPC: 1.12747 (Simulation time: 0 hr 6 min 7 sec) 
Heartbeat CPU  0 instructions:  196000000 cycles:  136342124 heartbeat IPC: 0.65947 cumulative IPC: 1.11920 (Simulation time: 0 hr 6 min 10 sec) 
Heartbeat CPU  0 instructions:  197000000 cycles:  137201689 heartbeat IPC: 1.16338 cumulative IPC: 1.11963 (Simulation time: 0 hr 6 min 12 sec) 
Heartbeat CPU  0 instructions:  198000002 cycles:  138068170 heartbeat IPC: 1.15410 cumulative IPC: 1.11998 (Simulation time: 0 hr 6 min 14 sec) 
Heartbeat CPU  0 instructions:  199000001 cycles:  138932855 heartbeat IPC: 1.15649 cumulative IPC: 1.12033 (Simulation time: 0 hr 6 min 16 sec) 
Heartbeat CPU  0 instructions:  200000000 cycles:  139799290 heartbeat IPC: 1.15415 cumulative IPC: 1.12066 (Simulation time: 0 hr 6 min 18 sec) 
Heartbeat CPU  0 instructions:  201000001 cycles:  140657234 heartbeat IPC: 1.16558 cumulative IPC: 1.12109 (Simulation time: 0 hr 6 min 20 sec) 
Heartbeat CPU  0 instructions:  202000002 cycles:  141515237 heartbeat IPC: 1.16550 cumulative IPC: 1.12151 (Simulation time: 0 hr 6 min 22 sec) 
Heartbeat CPU  0 instructions:  203000002 cycles:  142375043 heartbeat IPC: 1.16305 cumulative IPC: 1.12190 (Simulation time: 0 hr 6 min 24 sec) 
Heartbeat CPU  0 instructions:  204000000 cycles:  143676644 heartbeat IPC: 0.76828 cumulative IPC: 1.11695 (Simulation time: 0 hr 6 min 26 sec) 
Heartbeat CPU  0 instructions:  205000003 cycles:  144865151 heartbeat IPC: 0.84139 cumulative IPC: 1.11348 (Simulation time: 0 hr 6 min 28 sec) 
Heartbeat CPU  0 instructions:  206000000 cycles:  145750232 heartbeat IPC: 1.12984 cumulative IPC: 1.11363 (Simulation time: 0 hr 6 min 30 sec) 
Heartbeat CPU  0 instructions:  207000001 cycles:  146639094 heartbeat IPC: 1.12504 cumulative IPC: 1.11374 (Simulation time: 0 hr 6 min 32 sec) 
Heartbeat CPU  0 instructions:  208000000 cycles:  147530095 heartbeat IPC: 1.12233 cumulative IPC: 1.11382 (Simulation time: 0 hr 6 min 34 sec) 
Heartbeat CPU  0 instructions:  209000001 cycles:  148427562 heartbeat IPC: 1.11425 cumulative IPC: 1.11382 (Simulation time: 0 hr 6 min 36 sec) 
Heartbeat CPU  0 instructions:  210000003 cycles:  149320384 heartbeat IPC: 1.12005 cumulative IPC: 1.11388 (Simulation time: 0 hr 6 min 38 sec) 
Heartbeat CPU  0 instructions:  211000001 cycles:  150186707 heartbeat IPC: 1.15430 cumulative IPC: 1.11423 (Simulation time: 0 hr 6 min 40 sec) 
Heartbeat CPU  0 instructions:  212000000 cycles:  151062898 heartbeat IPC: 1.14130 cumulative IPC: 1.11447 (Simulation time: 0 hr 6 min 42 sec) 
Heartbeat CPU  0 instructions:  213000001 cycles:  152586972 heartbeat IPC: 0.65614 cumulative IPC: 1.10762 (Simulation time: 0 hr 6 min 44 sec) 
Heartbeat CPU  0 instructions:  214000002 cycles:  153717810 heartbeat IPC: 0.88430 cumulative IPC: 1.10517 (Simulation time: 0 hr 6 min 47 sec) 
Heartbeat CPU  0 instructions:  215000002 cycles:  154837010 heartbeat IPC: 0.89350 cumulative IPC: 1.10290 (Simulation time: 0 hr 6 min 49 sec) 
Heartbeat CPU  0 instructions:  216000000 cycles:  155933047 heartbeat IPC: 0.91238 cumulative IPC: 1.10092 (Simulation time: 0 hr 6 min 52 sec) 
Heartbeat CPU  0 instructions:  217000002 cycles:  157028733 heartbeat IPC: 0.91267 cumulative IPC: 1.09898 (Simulation time: 0 hr 6 min 54 sec) 
Heartbeat CPU  0 instructions:  218000003 cycles:  158126135 heartbeat IPC: 0.91124 cumulative IPC: 1.09706 (Simulation time: 0 hr 6 min 57 sec) 
Heartbeat CPU  0 instructions:  219000000 cycles:  159245505 heartbeat IPC: 0.89336 cumulative IPC: 1.09497 (Simulation time: 0 hr 6 min 59 sec) 
Heartbeat CPU  0 instructions:  220000000 cycles:  160343351 heartbeat IPC: 0.91087 cumulative IPC: 1.09312 (Simulation time: 0 hr 7 min 1 sec) 
Heartbeat CPU  0 instructions:  221000000 cycles:  161438476 heartbeat IPC: 0.91314 cumulative IPC: 1.09135 (Simulation time: 0 hr 7 min 4 sec) 
Heartbeat CPU  0 instructions:  222000001 cycles:  162538726 heartbeat IPC: 0.90889 cumulative IPC: 1.08955 (Simulation time: 0 hr 7 min 6 sec) 
Heartbeat CPU  0 instructions:  223000000 cycles:  163632718 heartbeat IPC: 0.91408 cumulative IPC: 1.08786 (Simulation time: 0 hr 7 min 9 sec) 
Heartbeat CPU  0 instructions:  224000000 cycles:  164756841 heartbeat IPC: 0.88958 cumulative IPC: 1.08590 (Simulation time: 0 hr 7 min 11 sec) 
Heartbeat CPU  0 instructions:  225000002 cycles:  165858696 heartbeat IPC: 0.90756 cumulative IPC: 1.08420 (Simulation time: 0 hr 7 min 14 sec) 
Heartbeat CPU  0 instructions:  226000003 cycles:  166954989 heartbeat IPC: 0.91217 cumulative IPC: 1.08258 (Simulation time: 0 hr 7 min 16 sec) 
Heartbeat CPU  0 instructions:  227000002 cycles:  168055991 heartbeat IPC: 0.90826 cumulative IPC: 1.08095 (Simulation time: 0 hr 7 min 18 sec) 
Heartbeat CPU  0 instructions:  228000000 cycles:  169189118 heartbeat IPC: 0.88251 cumulative IPC: 1.07905 (Simulation time: 0 hr 7 min 21 sec) 
Heartbeat CPU  0 instructions:  229000002 cycles:  170285280 heartbeat IPC: 0.91228 cumulative IPC: 1.07752 (Simulation time: 0 hr 7 min 23 sec) 
Heartbeat CPU  0 instructions:  230000000 cycles:  171384584 heartbeat IPC: 0.90966 cumulative IPC: 1.07600 (Simulation time: 0 hr 7 min 26 sec) 
Heartbeat CPU  0 instructions:  231000001 cycles:  172472707 heartbeat IPC: 0.91901 cumulative IPC: 1.07459 (Simulation time: 0 hr 7 min 28 sec) 
Heartbeat CPU  0 instructions:  232000000 cycles:  173601901 heartbeat IPC: 0.88559 cumulative IPC: 1.07286 (Simulation time: 0 hr 7 min 31 sec) 
Heartbeat CPU  0 instructions:  233000001 cycles:  174688253 heartbeat IPC: 0.92051 cumulative IPC: 1.07153 (Simulation time: 0 hr 7 min 33 sec) 
Heartbeat CPU  0 instructions:  234000002 cycles:  175790024 heartbeat IPC: 0.90763 cumulative IPC: 1.07008 (Simulation time: 0 hr 7 min 35 sec) 
Heartbeat CPU  0 instructions:  235000002 cycles:  176883910 heartbeat IPC: 0.91417 cumulative IPC: 1.06873 (Simulation time: 0 hr 7 min 38 sec) 
Heartbeat CPU  0 instructions:  236000000 cycles:  178010220 heartbeat IPC: 0.88785 cumulative IPC: 1.06714 (Simulation time: 0 hr 7 min 40 sec) 
Heartbeat CPU  0 instructions:  237000003 cycles:  179108842 heartbeat IPC: 0.91023 cumulative IPC: 1.06579 (Simulation time: 0 hr 7 min 43 sec) 
Heartbeat CPU  0 instructions:  238000003 cycles:  180201683 heartbeat IPC: 0.91505 cumulative IPC: 1.06452 (Simulation time: 0 hr 7 min 45 sec) 
Heartbeat CPU  0 instructions:  239000000 cycles:  181306784 heartbeat IPC: 0.90489 cumulative IPC: 1.06317 (Simulation time: 0 hr 7 min 47 sec) 
Heartbeat CPU  0 instructions:  240000000 cycles:  182419348 heartbeat IPC: 0.89882 cumulative IPC: 1.06179 (Simulation time: 0 hr 7 min 50 sec) 
Heartbeat CPU  0 instructions:  241000000 cycles:  183528002 heartbeat IPC: 0.90199 cumulative IPC: 1.06046 (Simulation time: 0 hr 7 min 52 sec) 
Heartbeat CPU  0 instructions:  242000001 cycles:  184610397 heartbeat IPC: 0.92388 cumulative IPC: 1.05935 (Simulation time: 0 hr 7 min 55 sec) 
Heartbeat CPU  0 instructions:  243000000 cycles:  185722522 heartbeat IPC: 0.89918 cumulative IPC: 1.05803 (Simulation time: 0 hr 7 min 57 sec) 
Heartbeat CPU  0 instructions:  244000000 cycles:  186811746 heartbeat IPC: 0.91808 cumulative IPC: 1.05692 (Simulation time: 0 hr 8 min 0 sec) 
Heartbeat CPU  0 instructions:  245000002 cycles:  187925471 heartbeat IPC: 0.89789 cumulative IPC: 1.05563 (Simulation time: 0 hr 8 min 2 sec) 
Heartbeat CPU  0 instructions:  246000003 cycles:  189026819 heartbeat IPC: 0.90798 cumulative IPC: 1.05445 (Simulation time: 0 hr 8 min 4 sec) 
Heartbeat CPU  0 instructions:  247000003 cycles:  190120192 heartbeat IPC: 0.91460 cumulative IPC: 1.05336 (Simulation time: 0 hr 8 min 7 sec) 
Heartbeat CPU  0 instructions:  248000000 cycles:  191222859 heartbeat IPC: 0.90689 cumulative IPC: 1.05221 (Simulation time: 0 hr 8 min 9 sec) 
Heartbeat CPU  0 instructions:  249000003 cycles:  192337956 heartbeat IPC: 0.89679 cumulative IPC: 1.05099 (Simulation time: 0 hr 8 min 12 sec) 
Heartbeat CPU  0 instructions:  250000000 cycles:  193435780 heartbeat IPC: 0.91089 cumulative IPC: 1.04991 (Simulation time: 0 hr 8 min 14 sec) 
Heartbeat CPU  0 instructions:  251000000 cycles:  194782559 heartbeat IPC: 0.74251 cumulative IPC: 1.04704 (Simulation time: 0 hr 8 min 17 sec) 
Heartbeat CPU  0 instructions:  252000000 cycles:  195909954 heartbeat IPC: 0.88700 cumulative IPC: 1.04580 (Simulation time: 0 hr 8 min 19 sec) 
Heartbeat CPU  0 instructions:  253000002 cycles:  196771032 heartbeat IPC: 1.16134 cumulative IPC: 1.04648 (Simulation time: 0 hr 8 min 21 sec) 
Heartbeat CPU  0 instructions:  254000003 cycles:  197632214 heartbeat IPC: 1.16120 cumulative IPC: 1.04715 (Simulation time: 0 hr 8 min 23 sec) 
Heartbeat CPU  0 instructions:  255000000 cycles:  198498477 heartbeat IPC: 1.15438 cumulative IPC: 1.04778 (Simulation time: 0 hr 8 min 25 sec) 
Heartbeat CPU  0 instructions:  256000000 cycles:  199358587 heartbeat IPC: 1.16264 cumulative IPC: 1.04844 (Simulation time: 0 hr 8 min 27 sec) 
Heartbeat CPU  0 instructions:  257000000 cycles:  200212744 heartbeat IPC: 1.17075 cumulative IPC: 1.04914 (Simulation time: 0 hr 8 min 29 sec) 
Heartbeat CPU  0 instructions:  258000002 cycles:  201062233 heartbeat IPC: 1.17718 cumulative IPC: 1.04986 (Simulation time: 0 hr 8 min 31 sec) 
Heartbeat CPU  0 instructions:  259000000 cycles:  201916752 heartbeat IPC: 1.17025 cumulative IPC: 1.05054 (Simulation time: 0 hr 8 min 33 sec) 
Heartbeat CPU  0 instructions:  260000000 cycles:  202763494 heartbeat IPC: 1.18100 cumulative IPC: 1.05127 (Simulation time: 0 hr 8 min 36 sec) 
Heartbeat CPU  0 instructions:  261000001 cycles:  203613544 heartbeat IPC: 1.17640 cumulative IPC: 1.05196 (Simulation time: 0 hr 8 min 38 sec) 
Heartbeat CPU  0 instructions:  262000000 cycles:  204477649 heartbeat IPC: 1.15727 cumulative IPC: 1.05255 (Simulation time: 0 hr 8 min 40 sec) 
Heartbeat CPU  0 instructions:  263000002 cycles:  205321890 heartbeat IPC: 1.18450 cumulative IPC: 1.05327 (Simulation time: 0 hr 8 min 42 sec) 
Heartbeat CPU  0 instructions:  264000000 cycles:  206174695 heartbeat IPC: 1.17260 cumulative IPC: 1.05393 (Simulation time: 0 hr 8 min 44 sec) 
Heartbeat CPU  0 instructions:  265000002 cycles:  207017958 heartbeat IPC: 1.18587 cumulative IPC: 1.05464 (Simulation time: 0 hr 8 min 46 sec) 
Heartbeat CPU  0 instructions:  266000000 cycles:  207861630 heartbeat IPC: 1.18529 cumulative IPC: 1.05534 (Simulation time: 0 hr 8 min 48 sec) 
Heartbeat CPU  0 instructions:  267000000 cycles:  208701397 heartbeat IPC: 1.19081 cumulative IPC: 1.05606 (Simulation time: 0 hr 8 min 50 sec) 
Heartbeat CPU  0 instructions:  268000000 cycles:  209585588 heartbeat IPC: 1.13098 cumulative IPC: 1.05648 (Simulation time: 0 hr 8 min 52 sec) 
Heartbeat CPU  0 instructions:  269000000 cycles:  210429579 heartbeat IPC: 1.18485 cumulative IPC: 1.05715 (Simulation time: 0 hr 8 min 54 sec) 
Heartbeat CPU  0 instructions:  270000003 cycles:  211274856 heartbeat IPC: 1.18305 cumulative IPC: 1.05782 (Simulation time: 0 hr 8 min 56 sec) 
Heartbeat CPU  0 instructions:  271000000 cycles:  212120069 heartbeat IPC: 1.18313 cumulative IPC: 1.05847 (Simulation time: 0 hr 8 min 58 sec) 
Heartbeat CPU  0 instructions:  272000000 cycles:  212991877 heartbeat IPC: 1.14704 cumulative IPC: 1.05895 (Simulation time: 0 hr 9 min 0 sec) 
Heartbeat CPU  0 instructions:  273000000 cycles:  213840146 heartbeat IPC: 1.17887 cumulative IPC: 1.05957 (Simulation time: 0 hr 9 min 3 sec) 
Heartbeat CPU  0 instructions:  274000002 cycles:  214681917 heartbeat IPC: 1.18797 cumulative IPC: 1.06023 (Simulation time: 0 hr 9 min 5 sec) 
Heartbeat CPU  0 instructions:  275000000 cycles:  215535331 heartbeat IPC: 1.17176 cumulative IPC: 1.06080 (Simulation time: 0 hr 9 min 7 sec) 
Heartbeat CPU  0 instructions:  276000000 cycles:  216394127 heartbeat IPC: 1.16442 cumulative IPC: 1.06134 (Simulation time: 0 hr 9 min 9 sec) 
Heartbeat CPU  0 instructions:  277000002 cycles:  217250536 heartbeat IPC: 1.16767 cumulative IPC: 1.06189 (Simulation time: 0 hr 9 min 11 sec) 
Heartbeat CPU  0 instructions:  278000002 cycles:  218097782 heartbeat IPC: 1.18029 cumulative IPC: 1.06249 (Simulation time: 0 hr 9 min 13 sec) 
Heartbeat CPU  0 instructions:  279000000 cycles:  218945227 heartbeat IPC: 1.18002 cumulative IPC: 1.06308 (Simulation time: 0 hr 9 min 15 sec) 
Heartbeat CPU  0 instructions:  280000000 cycles:  219782218 heartbeat IPC: 1.19476 cumulative IPC: 1.06373 (Simulation time: 0 hr 9 min 17 sec) 
Heartbeat CPU  0 instructions:  281000002 cycles:  220625376 heartbeat IPC: 1.18602 cumulative IPC: 1.06434 (Simulation time: 0 hr 9 min 19 sec) 
Heartbeat CPU  0 instructions:  282000002 cycles:  221500367 heartbeat IPC: 1.14287 cumulative IPC: 1.06474 (Simulation time: 0 hr 9 min 21 sec) 
Heartbeat CPU  0 instructions:  283000001 cycles:  222354932 heartbeat IPC: 1.17018 cumulative IPC: 1.06526 (Simulation time: 0 hr 9 min 23 sec) 
Heartbeat CPU  0 instructions:  284000000 cycles:  223207366 heartbeat IPC: 1.17311 cumulative IPC: 1.06579 (Simulation time: 0 hr 9 min 26 sec) 
Heartbeat CPU  0 instructions:  285000003 cycles:  224054106 heartbeat IPC: 1.18100 cumulative IPC: 1.06636 (Simulation time: 0 hr 9 min 28 sec) 
Heartbeat CPU  0 instructions:  286000003 cycles:  224907735 heartbeat IPC: 1.17147 cumulative IPC: 1.06687 (Simulation time: 0 hr 9 min 30 sec) 
Heartbeat CPU  0 instructions:  287000001 cycles:  225765347 heartbeat IPC: 1.16603 cumulative IPC: 1.06736 (Simulation time: 0 hr 9 min 32 sec) 
Heartbeat CPU  0 instructions:  288000000 cycles:  226617404 heartbeat IPC: 1.17363 cumulative IPC: 1.06787 (Simulation time: 0 hr 9 min 34 sec) 
Heartbeat CPU  0 instructions:  289000001 cycles:  227463044 heartbeat IPC: 1.18254 cumulative IPC: 1.06842 (Simulation time: 0 hr 9 min 36 sec) 
Heartbeat CPU  0 instructions:  290000003 cycles:  228308516 heartbeat IPC: 1.18277 cumulative IPC: 1.06896 (Simulation time: 0 hr 9 min 38 sec) 
Heartbeat CPU  0 instructions:  291000003 cycles:  229144183 heartbeat IPC: 1.19665 cumulative IPC: 1.06956 (Simulation time: 0 hr 9 min 40 sec) 
Heartbeat CPU  0 instructions:  292000000 cycles:  229989655 heartbeat IPC: 1.18277 cumulative IPC: 1.07009 (Simulation time: 0 hr 9 min 42 sec) 
Heartbeat CPU  0 instructions:  293000002 cycles:  230879777 heartbeat IPC: 1.12344 cumulative IPC: 1.07036 (Simulation time: 0 hr 9 min 44 sec) 
Heartbeat CPU  0 instructions:  294000002 cycles:  231730946 heartbeat IPC: 1.17485 cumulative IPC: 1.07085 (Simulation time: 0 hr 9 min 46 sec) 
Heartbeat CPU  0 instructions:  295000001 cycles:  232588446 heartbeat IPC: 1.16618 cumulative IPC: 1.07130 (Simulation time: 0 hr 9 min 48 sec) 
Heartbeat CPU  0 instructions:  296000000 cycles:  233440005 heartbeat IPC: 1.17432 cumulative IPC: 1.07178 (Simulation time: 0 hr 9 min 51 sec) 
Heartbeat CPU  0 instructions:  297000003 cycles:  234283604 heartbeat IPC: 1.18540 cumulative IPC: 1.07230 (Simulation time: 0 hr 9 min 53 sec) 
Heartbeat CPU  0 instructions:  298000000 cycles:  235133556 heartbeat IPC: 1.17653 cumulative IPC: 1.07278 (Simulation time: 0 hr 9 min 55 sec) 
Heartbeat CPU  0 instructions:  299000003 cycles:  235989225 heartbeat IPC: 1.16868 cumulative IPC: 1.07322 (Simulation time: 0 hr 9 min 57 sec) 
Heartbeat CPU  0 instructions:  300000000 cycles:  236856600 heartbeat IPC: 1.15290 cumulative IPC: 1.07359 (Simulation time: 0 hr 9 min 59 sec) 
Heartbeat CPU  0 instructions:  301000000 cycles:  237706557 heartbeat IPC: 1.17653 cumulative IPC: 1.07406 (Simulation time: 0 hr 10 min 1 sec) 
Heartbeat CPU  0 instructions:  302000003 cycles:  238574057 heartbeat IPC: 1.15274 cumulative IPC: 1.07442 (Simulation time: 0 hr 10 min 3 sec) 
Heartbeat CPU  0 instructions:  303000000 cycles:  239449903 heartbeat IPC: 1.14175 cumulative IPC: 1.07474 (Simulation time: 0 hr 10 min 5 sec) 
Heartbeat CPU  0 instructions:  304000000 cycles:  240312214 heartbeat IPC: 1.15967 cumulative IPC: 1.07512 (Simulation time: 0 hr 10 min 7 sec) 
Heartbeat CPU  0 instructions:  305000003 cycles:  241173832 heartbeat IPC: 1.16061 cumulative IPC: 1.07551 (Simulation time: 0 hr 10 min 9 sec) 
Heartbeat CPU  0 instructions:  306000001 cycles:  242042163 heartbeat IPC: 1.15163 cumulative IPC: 1.07585 (Simulation time: 0 hr 10 min 12 sec) 
Heartbeat CPU  0 instructions:  307000001 cycles:  242899445 heartbeat IPC: 1.16648 cumulative IPC: 1.07626 (Simulation time: 0 hr 10 min 14 sec) 
Heartbeat CPU  0 instructions:  308000000 cycles:  243744913 heartbeat IPC: 1.18278 cumulative IPC: 1.07672 (Simulation time: 0 hr 10 min 16 sec) 
Heartbeat CPU  0 instructions:  309000001 cycles:  244600846 heartbeat IPC: 1.16832 cumulative IPC: 1.07713 (Simulation time: 0 hr 10 min 18 sec) 
Heartbeat CPU  0 instructions:  310000000 cycles:  245441161 heartbeat IPC: 1.19003 cumulative IPC: 1.07761 (Simulation time: 0 hr 10 min 20 sec) 
Heartbeat CPU  0 instructions:  311000000 cycles:  246283975 heartbeat IPC: 1.18650 cumulative IPC: 1.07808 (Simulation time: 0 hr 10 min 22 sec) 
Heartbeat CPU  0 instructions:  312000000 cycles:  247126078 heartbeat IPC: 1.18750 cumulative IPC: 1.07855 (Simulation time: 0 hr 10 min 24 sec) 
Heartbeat CPU  0 instructions:  313000003 cycles:  247965346 heartbeat IPC: 1.19152 cumulative IPC: 1.07903 (Simulation time: 0 hr 10 min 26 sec) 
Heartbeat CPU  0 instructions:  314000001 cycles:  248847917 heartbeat IPC: 1.13305 cumulative IPC: 1.07927 (Simulation time: 0 hr 10 min 28 sec) 
Heartbeat CPU  0 instructions:  315000000 cycles:  249706354 heartbeat IPC: 1.16491 cumulative IPC: 1.07964 (Simulation time: 0 hr 10 min 30 sec) 
Heartbeat CPU  0 instructions:  316000000 cycles:  250555911 heartbeat IPC: 1.17708 cumulative IPC: 1.08006 (Simulation time: 0 hr 10 min 32 sec) 
Heartbeat CPU  0 instructions:  317000003 cycles:  251413158 heartbeat IPC: 1.16653 cumulative IPC: 1.08042 (Simulation time: 0 hr 10 min 35 sec) 
Heartbeat CPU  0 instructions:  318000002 cycles:  252277923 heartbeat IPC: 1.15638 cumulative IPC: 1.08075 (Simulation time: 0 hr 10 min 37 sec) 
Heartbeat CPU  0 instructions:  319000002 cycles:  253138143 heartbeat IPC: 1.16249 cumulative IPC: 1.08110 (Simulation time: 0 hr 10 min 39 sec) 
Heartbeat CPU  0 instructions:  320000000 cycles:  253989368 heartbeat IPC: 1.17478 cumulative IPC: 1.08149 (Simulation time: 0 hr 10 min 41 sec) 
Heartbeat CPU  0 instructions:  321000002 cycles:  254829013 heartbeat IPC: 1.19098 cumulative IPC: 1.08194 (Simulation time: 0 hr 10 min 43 sec) 
Heartbeat CPU  0 instructions:  322000002 cycles:  255671879 heartbeat IPC: 1.18643 cumulative IPC: 1.08237 (Simulation time: 0 hr 10 min 45 sec) 
Heartbeat CPU  0 instructions:  323000002 cycles:  256517433 heartbeat IPC: 1.18266 cumulative IPC: 1.08278 (Simulation time: 0 hr 10 min 47 sec) 
Heartbeat CPU  0 instructions:  324000000 cycles:  257405390 heartbeat IPC: 1.12618 cumulative IPC: 1.08297 (Simulation time: 0 hr 10 min 49 sec) 
Heartbeat CPU  0 instructions:  325000002 cycles:  258253951 heartbeat IPC: 1.17847 cumulative IPC: 1.08336 (Simulation time: 0 hr 10 min 51 sec) 
Heartbeat CPU  0 instructions:  326000000 cycles:  259114201 heartbeat IPC: 1.16245 cumulative IPC: 1.08368 (Simulation time: 0 hr 10 min 53 sec) 
Heartbeat CPU  0 instructions:  327000002 cycles:  259963813 heartbeat IPC: 1.17701 cumulative IPC: 1.08406 (Simulation time: 0 hr 10 min 55 sec) 
Heartbeat CPU  0 instructions:  328000000 cycles:  260825214 heartbeat IPC: 1.16090 cumulative IPC: 1.08438 (Simulation time: 0 hr 10 min 57 sec) 
Heartbeat CPU  0 instructions:  329000001 cycles:  261694100 heartbeat IPC: 1.15090 cumulative IPC: 1.08465 (Simulation time: 0 hr 11 min 0 sec) 
Heartbeat CPU  0 instructions:  330000001 cycles:  262561135 heartbeat IPC: 1.15336 cumulative IPC: 1.08493 (Simulation time: 0 hr 11 min 2 sec) 
Heartbeat CPU  0 instructions:  331000001 cycles:  263408431 heartbeat IPC: 1.18023 cumulative IPC: 1.08531 (Simulation time: 0 hr 11 min 4 sec) 
Heartbeat CPU  0 instructions:  332000000 cycles:  264247091 heartbeat IPC: 1.19238 cumulative IPC: 1.08573 (Simulation time: 0 hr 11 min 6 sec) 
Heartbeat CPU  0 instructions:  333000001 cycles:  265085904 heartbeat IPC: 1.19216 cumulative IPC: 1.08615 (Simulation time: 0 hr 11 min 8 sec) 
Heartbeat CPU  0 instructions:  334000003 cycles:  265926482 heartbeat IPC: 1.18966 cumulative IPC: 1.08655 (Simulation time: 0 hr 11 min 10 sec) 
Heartbeat CPU  0 instructions:  335000002 cycles:  266814108 heartbeat IPC: 1.12660 cumulative IPC: 1.08672 (Simulation time: 0 hr 11 min 12 sec) 
Heartbeat CPU  0 instructions:  336000000 cycles:  267660600 heartbeat IPC: 1.18134 cumulative IPC: 1.08709 (Simulation time: 0 hr 11 min 14 sec) 
Heartbeat CPU  0 instructions:  337000002 cycles:  268521058 heartbeat IPC: 1.16217 cumulative IPC: 1.08738 (Simulation time: 0 hr 11 min 16 sec) 
Heartbeat CPU  0 instructions:  338000002 cycles:  269369780 heartbeat IPC: 1.17824 cumulative IPC: 1.08773 (Simulation time: 0 hr 11 min 18 sec) 
Heartbeat CPU  0 instructions:  339000002 cycles:  270223199 heartbeat IPC: 1.17176 cumulative IPC: 1.08806 (Simulation time: 0 hr 11 min 20 sec) 
Heartbeat CPU  0 instructions:  340000000 cycles:  271078052 heartbeat IPC: 1.16979 cumulative IPC: 1.08838 (Simulation time: 0 hr 11 min 23 sec) 
Heartbeat CPU  0 instructions:  341000001 cycles:  271927862 heartbeat IPC: 1.17673 cumulative IPC: 1.08872 (Simulation time: 0 hr 11 min 25 sec) 
Heartbeat CPU  0 instructions:  342000003 cycles:  272768434 heartbeat IPC: 1.18967 cumulative IPC: 1.08910 (Simulation time: 0 hr 11 min 27 sec) 
Heartbeat CPU  0 instructions:  343000003 cycles:  273611352 heartbeat IPC: 1.18635 cumulative IPC: 1.08947 (Simulation time: 0 hr 11 min 29 sec) 
Heartbeat CPU  0 instructions:  344000000 cycles:  274448492 heartbeat IPC: 1.19454 cumulative IPC: 1.08986 (Simulation time: 0 hr 11 min 31 sec) 
Heartbeat CPU  0 instructions:  345000001 cycles:  275327203 heartbeat IPC: 1.13803 cumulative IPC: 1.09005 (Simulation time: 0 hr 11 min 33 sec) 
Heartbeat CPU  0 instructions:  346000003 cycles:  276188887 heartbeat IPC: 1.16052 cumulative IPC: 1.09032 (Simulation time: 0 hr 11 min 35 sec) 
Heartbeat CPU  0 instructions:  347000003 cycles:  277046424 heartbeat IPC: 1.16613 cumulative IPC: 1.09060 (Simulation time: 0 hr 11 min 37 sec) 
Heartbeat CPU  0 instructions:  348000000 cycles:  277909273 heartbeat IPC: 1.15895 cumulative IPC: 1.09086 (Simulation time: 0 hr 11 min 39 sec) 
Heartbeat CPU  0 instructions:  349000000 cycles:  278761961 heartbeat IPC: 1.17276 cumulative IPC: 1.09117 (Simulation time: 0 hr 11 min 41 sec) 
Heartbeat CPU  0 instructions:  350000003 cycles:  279616924 heartbeat IPC: 1.16964 cumulative IPC: 1.09146 (Simulation time: 0 hr 11 min 44 sec) 
Heartbeat CPU  0 instructions:  351000002 cycles:  280471159 heartbeat IPC: 1.17064 cumulative IPC: 1.09176 (Simulation time: 0 hr 11 min 46 sec) 
Heartbeat CPU  0 instructions:  352000000 cycles:  281318815 heartbeat IPC: 1.17972 cumulative IPC: 1.09208 (Simulation time: 0 hr 11 min 48 sec) 
Heartbeat CPU  0 instructions:  353000003 cycles:  282168172 heartbeat IPC: 1.17736 cumulative IPC: 1.09239 (Simulation time: 0 hr 11 min 50 sec) 
Heartbeat CPU  0 instructions:  354000003 cycles:  283012099 heartbeat IPC: 1.18494 cumulative IPC: 1.09273 (Simulation time: 0 hr 11 min 52 sec) 
Heartbeat CPU  0 instructions:  355000000 cycles:  283850577 heartbeat IPC: 1.19263 cumulative IPC: 1.09309 (Simulation time: 0 hr 11 min 54 sec) 
Heartbeat CPU  0 instructions:  356000000 cycles:  284742899 heartbeat IPC: 1.12067 cumulative IPC: 1.09319 (Simulation time: 0 hr 11 min 56 sec) 
Heartbeat CPU  0 instructions:  357000001 cycles:  285602872 heartbeat IPC: 1.16283 cumulative IPC: 1.09345 (Simulation time: 0 hr 11 min 59 sec) 
Heartbeat CPU  0 instructions:  358000003 cycles:  286467364 heartbeat IPC: 1.15675 cumulative IPC: 1.09368 (Simulation time: 0 hr 12 min 1 sec) 
Heartbeat CPU  0 instructions:  359000000 cycles:  287330321 heartbeat IPC: 1.15880 cumulative IPC: 1.09392 (Simulation time: 0 hr 12 min 3 sec) 
Heartbeat CPU  0 instructions:  360000000 cycles:  288192040 heartbeat IPC: 1.16047 cumulative IPC: 1.09416 (Simulation time: 0 hr 12 min 5 sec) 
Heartbeat CPU  0 instructions:  361000002 cycles:  289058726 heartbeat IPC: 1.15382 cumulative IPC: 1.09437 (Simulation time: 0 hr 12 min 7 sec) 
Heartbeat CPU  0 instructions:  362000002 cycles:  289925215 heartbeat IPC: 1.15408 cumulative IPC: 1.09459 (Simulation time: 0 hr 12 min 9 sec) 
Heartbeat CPU  0 instructions:  363000002 cycles:  290767708 heartbeat IPC: 1.18695 cumulative IPC: 1.09491 (Simulation time: 0 hr 12 min 11 sec) 
Heartbeat CPU  0 instructions:  364000000 cycles:  291613069 heartbeat IPC: 1.18292 cumulative IPC: 1.09522 (Simulation time: 0 hr 12 min 13 sec) 
Heartbeat CPU  0 instructions:  365000001 cycles:  292459090 heartbeat IPC: 1.18200 cumulative IPC: 1.09553 (Simulation time: 0 hr 12 min 15 sec) 
Heartbeat CPU  0 instructions:  366000001 cycles:  293322633 heartbeat IPC: 1.15802 cumulative IPC: 1.09575 (Simulation time: 0 hr 12 min 17 sec) 
Heartbeat CPU  0 instructions:  367000003 cycles:  294182868 heartbeat IPC: 1.16248 cumulative IPC: 1.09598 (Simulation time: 0 hr 12 min 20 sec) 
Heartbeat CPU  0 instructions:  368000000 cycles:  295052857 heartbeat IPC: 1.14944 cumulative IPC: 1.09617 (Simulation time: 0 hr 12 min 22 sec) 
Heartbeat CPU  0 instructions:  369000001 cycles:  295911017 heartbeat IPC: 1.16528 cumulative IPC: 1.09642 (Simulation time: 0 hr 12 min 24 sec) 
Heartbeat CPU  0 instructions:  370000002 cycles:  296774303 heartbeat IPC: 1.15837 cumulative IPC: 1.09663 (Simulation time: 0 hr 12 min 26 sec) 
Heartbeat CPU  0 instructions:  371000002 cycles:  297629322 heartbeat IPC: 1.16956 cumulative IPC: 1.09689 (Simulation time: 0 hr 12 min 28 sec) 
Heartbeat CPU  0 instructions:  372000000 cycles:  298475633 heartbeat IPC: 1.18160 cumulative IPC: 1.09718 (Simulation time: 0 hr 12 min 30 sec) 
Heartbeat CPU  0 instructions:  373000001 cycles:  299318940 heartbeat IPC: 1.18581 cumulative IPC: 1.09748 (Simulation time: 0 hr 12 min 32 sec) 
Heartbeat CPU  0 instructions:  374000001 cycles:  300155204 heartbeat IPC: 1.19579 cumulative IPC: 1.09781 (Simulation time: 0 hr 12 min 34 sec) 
Heartbeat CPU  0 instructions:  375000000 cycles:  301000450 heartbeat IPC: 1.18309 cumulative IPC: 1.09809 (Simulation time: 0 hr 12 min 36 sec) 
Heartbeat CPU  0 instructions:  376000000 cycles:  301840525 heartbeat IPC: 1.19037 cumulative IPC: 1.09840 (Simulation time: 0 hr 12 min 38 sec) 
Heartbeat CPU  0 instructions:  377000002 cycles:  302729645 heartbeat IPC: 1.12471 cumulative IPC: 1.09849 (Simulation time: 0 hr 12 min 41 sec) 
Heartbeat CPU  0 instructions:  378000000 cycles:  303585113 heartbeat IPC: 1.16895 cumulative IPC: 1.09873 (Simulation time: 0 hr 12 min 43 sec) 
Heartbeat CPU  0 instructions:  379000000 cycles:  304434441 heartbeat IPC: 1.17740 cumulative IPC: 1.09900 (Simulation time: 0 hr 12 min 45 sec) 
Heartbeat CPU  0 instructions:  380000000 cycles:  305293069 heartbeat IPC: 1.16465 cumulative IPC: 1.09922 (Simulation time: 0 hr 12 min 47 sec) 
Heartbeat CPU  0 instructions:  381000002 cycles:  306145528 heartbeat IPC: 1.17308 cumulative IPC: 1.09946 (Simulation time: 0 hr 12 min 49 sec) 
Heartbeat CPU  0 instructions:  382000000 cycles:  307000547 heartbeat IPC: 1.16956 cumulative IPC: 1.09970 (Simulation time: 0 hr 12 min 51 sec) 
Heartbeat CPU  0 instructions:  383000000 cycles:  307846668 heartbeat IPC: 1.18186 cumulative IPC: 1.09997 (Simulation time: 0 hr 12 min 53 sec) 
Heartbeat CPU  0 instructions:  384000000 cycles:  308690005 heartbeat IPC: 1.18577 cumulative IPC: 1.10025 (Simulation time: 0 hr 12 min 55 sec) 
Heartbeat CPU  0 instructions:  385000001 cycles:  309529191 heartbeat IPC: 1.19163 cumulative IPC: 1.10054 (Simulation time: 0 hr 12 min 57 sec) 
Heartbeat CPU  0 instructions:  386000002 cycles:  310380602 heartbeat IPC: 1.17452 cumulative IPC: 1.10079 (Simulation time: 0 hr 12 min 59 sec) 
Heartbeat CPU  0 instructions:  387000000 cycles:  311281363 heartbeat IPC: 1.11017 cumulative IPC: 1.10082 (Simulation time: 0 hr 13 min 1 sec) 
Heartbeat CPU  0 instructions:  388000000 cycles:  312147957 heartbeat IPC: 1.15394 cumulative IPC: 1.10099 (Simulation time: 0 hr 13 min 4 sec) 
Heartbeat CPU  0 instructions:  389000003 cycles:  313008406 heartbeat IPC: 1.16219 cumulative IPC: 1.10120 (Simulation time: 0 hr 13 min 6 sec) 
Heartbeat CPU  0 instructions:  390000001 cycles:  313871632 heartbeat IPC: 1.15844 cumulative IPC: 1.10138 (Simulation time: 0 hr 13 min 8 sec) 
Heartbeat CPU  0 instructions:  391000002 cycles:  314725965 heartbeat IPC: 1.17050 cumulative IPC: 1.10161 (Simulation time: 0 hr 13 min 10 sec) 
Heartbeat CPU  0 instructions:  392000000 cycles:  315596505 heartbeat IPC: 1.14871 cumulative IPC: 1.10176 (Simulation time: 0 hr 13 min 12 sec) 
Heartbeat CPU  0 instructions:  393000003 cycles:  316451426 heartbeat IPC: 1.16970 cumulative IPC: 1.10198 (Simulation time: 0 hr 13 min 14 sec) 
Heartbeat CPU  0 instructions:  394000003 cycles:  317296931 heartbeat IPC: 1.18273 cumulative IPC: 1.10224 (Simulation time: 0 hr 13 min 16 sec) 
Heartbeat CPU  0 instructions:  395000003 cycles:  318145826 heartbeat IPC: 1.17800 cumulative IPC: 1.10248 (Simulation time: 0 hr 13 min 18 sec) 
Heartbeat CPU  0 instructions:  396000000 cycles:  318986367 heartbeat IPC: 1.18971 cumulative IPC: 1.10275 (Simulation time: 0 hr 13 min 20 sec) 
Heartbeat CPU  0 instructions:  397000001 cycles:  319832343 heartbeat IPC: 1.18207 cumulative IPC: 1.10300 (Simulation time: 0 hr 13 min 22 sec) 
Heartbeat CPU  0 instructions:  398000001 cycles:  321079066 heartbeat IPC: 0.80210 cumulative IPC: 1.10161 (Simulation time: 0 hr 13 min 24 sec) 
Heartbeat CPU  0 instructions:  399000000 cycles:  322600829 heartbeat IPC: 0.65713 cumulative IPC: 1.09913 (Simulation time: 0 hr 13 min 27 sec) 
Heartbeat CPU  0 instructions:  400000000 cycles:  323575559 heartbeat IPC: 1.02593 cumulative IPC: 1.09886 (Simulation time: 0 hr 13 min 29 sec) 
Heartbeat CPU  0 instructions:  401000001 cycles:  324536668 heartbeat IPC: 1.04047 cumulative IPC: 1.09866 (Simulation time: 0 hr 13 min 31 sec) 
Heartbeat CPU  0 instructions:  402000003 cycles:  325498336 heartbeat IPC: 1.03986 cumulative IPC: 1.09845 (Simulation time: 0 hr 13 min 33 sec) 
Heartbeat CPU  0 instructions:  403000000 cycles:  326459444 heartbeat IPC: 1.04046 cumulative IPC: 1.09825 (Simulation time: 0 hr 13 min 35 sec) 
Heartbeat CPU  0 instructions:  404000000 cycles:  327424105 heartbeat IPC: 1.03663 cumulative IPC: 1.09804 (Simulation time: 0 hr 13 min 38 sec) 
Heartbeat CPU  0 instructions:  405000003 cycles:  328385038 heartbeat IPC: 1.04066 cumulative IPC: 1.09784 (Simulation time: 0 hr 13 min 40 sec) 
Heartbeat CPU  0 instructions:  406000003 cycles:  329348580 heartbeat IPC: 1.03784 cumulative IPC: 1.09763 (Simulation time: 0 hr 13 min 42 sec) 
Heartbeat CPU  0 instructions:  407000000 cycles:  330306886 heartbeat IPC: 1.04350 cumulative IPC: 1.09745 (Simulation time: 0 hr 13 min 44 sec) 
Heartbeat CPU  0 instructions:  408000000 cycles:  331269219 heartbeat IPC: 1.03914 cumulative IPC: 1.09725 (Simulation time: 0 hr 13 min 46 sec) 
Heartbeat CPU  0 instructions:  409000002 cycles:  332227082 heartbeat IPC: 1.04399 cumulative IPC: 1.09706 (Simulation time: 0 hr 13 min 48 sec) 
Heartbeat CPU  0 instructions:  410000002 cycles:  333185755 heartbeat IPC: 1.04311 cumulative IPC: 1.09688 (Simulation time: 0 hr 13 min 51 sec) 
Heartbeat CPU  0 instructions:  411000000 cycles:  334148384 heartbeat IPC: 1.03882 cumulative IPC: 1.09668 (Simulation time: 0 hr 13 min 53 sec) 
Heartbeat CPU  0 instructions:  412000000 cycles:  335109056 heartbeat IPC: 1.04094 cumulative IPC: 1.09650 (Simulation time: 0 hr 13 min 55 sec) 
Heartbeat CPU  0 instructions:  413000001 cycles:  336069372 heartbeat IPC: 1.04132 cumulative IPC: 1.09631 (Simulation time: 0 hr 13 min 57 sec) 
Heartbeat CPU  0 instructions:  414000000 cycles:  337029280 heartbeat IPC: 1.04177 cumulative IPC: 1.09613 (Simulation time: 0 hr 13 min 59 sec) 
Heartbeat CPU  0 instructions:  415000002 cycles:  337989483 heartbeat IPC: 1.04145 cumulative IPC: 1.09594 (Simulation time: 0 hr 14 min 1 sec) 
Heartbeat CPU  0 instructions:  416000000 cycles:  338948799 heartbeat IPC: 1.04241 cumulative IPC: 1.09577 (Simulation time: 0 hr 14 min 4 sec) 
Heartbeat CPU  0 instructions:  417000001 cycles:  339908465 heartbeat IPC: 1.04203 cumulative IPC: 1.09559 (Simulation time: 0 hr 14 min 6 sec) 
Heartbeat CPU  0 instructions:  418000002 cycles:  340867707 heartbeat IPC: 1.04249 cumulative IPC: 1.09541 (Simulation time: 0 hr 14 min 8 sec) 
Heartbeat CPU  0 instructions:  419000003 cycles:  341826101 heartbeat IPC: 1.04341 cumulative IPC: 1.09524 (Simulation time: 0 hr 14 min 10 sec) 
Heartbeat CPU  0 instructions:  420000000 cycles:  342790637 heartbeat IPC: 1.03676 cumulative IPC: 1.09505 (Simulation time: 0 hr 14 min 12 sec) 
Heartbeat CPU  0 instructions:  421000002 cycles:  343761059 heartbeat IPC: 1.03048 cumulative IPC: 1.09484 (Simulation time: 0 hr 14 min 14 sec) 
Heartbeat CPU  0 instructions:  422000000 cycles:  344743996 heartbeat IPC: 1.01736 cumulative IPC: 1.09458 (Simulation time: 0 hr 14 min 17 sec) 
Heartbeat CPU  0 instructions:  423000003 cycles:  345713797 heartbeat IPC: 1.03114 cumulative IPC: 1.09437 (Simulation time: 0 hr 14 min 19 sec) 
Heartbeat CPU  0 instructions:  424000000 cycles:  346684852 heartbeat IPC: 1.02980 cumulative IPC: 1.09416 (Simulation time: 0 hr 14 min 21 sec) 
Heartbeat CPU  0 instructions:  425000000 cycles:  347654590 heartbeat IPC: 1.03121 cumulative IPC: 1.09395 (Simulation time: 0 hr 14 min 23 sec) 
Heartbeat CPU  0 instructions:  426000000 cycles:  348635950 heartbeat IPC: 1.01899 cumulative IPC: 1.09370 (Simulation time: 0 hr 14 min 25 sec) 
Heartbeat CPU  0 instructions:  427000003 cycles:  349605592 heartbeat IPC: 1.03131 cumulative IPC: 1.09350 (Simulation time: 0 hr 14 min 27 sec) 
Heartbeat CPU  0 instructions:  428000000 cycles:  350585488 heartbeat IPC: 1.02051 cumulative IPC: 1.09326 (Simulation time: 0 hr 14 min 30 sec) 
Heartbeat CPU  0 instructions:  429000000 cycles:  351555066 heartbeat IPC: 1.03138 cumulative IPC: 1.09306 (Simulation time: 0 hr 14 min 32 sec) 
Heartbeat CPU  0 instructions:  430000003 cycles:  352524193 heartbeat IPC: 1.03186 cumulative IPC: 1.09287 (Simulation time: 0 hr 14 min 34 sec) 
Heartbeat CPU  0 instructions:  431000003 cycles:  353501113 heartbeat IPC: 1.02363 cumulative IPC: 1.09264 (Simulation time: 0 hr 14 min 36 sec) 
Heartbeat CPU  0 instructions:  432000000 cycles:  354469689 heartbeat IPC: 1.03244 cumulative IPC: 1.09245 (Simulation time: 0 hr 14 min 38 sec) 
Heartbeat CPU  0 instructions:  433000001 cycles:  355441161 heartbeat IPC: 1.02937 cumulative IPC: 1.09225 (Simulation time: 0 hr 14 min 40 sec) 
Heartbeat CPU  0 instructions:  434000003 cycles:  356409098 heartbeat IPC: 1.03313 cumulative IPC: 1.09206 (Simulation time: 0 hr 14 min 43 sec) 
Heartbeat CPU  0 instructions:  435000001 cycles:  357385194 heartbeat IPC: 1.02449 cumulative IPC: 1.09185 (Simulation time: 0 hr 14 min 45 sec) 
Heartbeat CPU  0 instructions:  436000000 cycles:  358351967 heartbeat IPC: 1.03437 cumulative IPC: 1.09167 (Simulation time: 0 hr 14 min 47 sec) 
Heartbeat CPU  0 instructions:  437000000 cycles:  359318951 heartbeat IPC: 1.03414 cumulative IPC: 1.09149 (Simulation time: 0 hr 14 min 49 sec) 
Heartbeat CPU  0 instructions:  438000001 cycles:  360277970 heartbeat IPC: 1.04273 cumulative IPC: 1.09134 (Simulation time: 0 hr 14 min 51 sec) 
Heartbeat CPU  0 instructions:  439000002 cycles:  361236585 heartbeat IPC: 1.04317 cumulative IPC: 1.09119 (Simulation time: 0 hr 14 min 53 sec) 
Heartbeat CPU  0 instructions:  440000000 cycles:  362197501 heartbeat IPC: 1.04067 cumulative IPC: 1.09103 (Simulation time: 0 hr 14 min 56 sec) 
Heartbeat CPU  0 instructions:  441000001 cycles:  363156498 heartbeat IPC: 1.04276 cumulative IPC: 1.09089 (Simulation time: 0 hr 14 min 58 sec) 
Heartbeat CPU  0 instructions:  442000001 cycles:  364116188 heartbeat IPC: 1.04200 cumulative IPC: 1.09074 (Simulation time: 0 hr 15 min 0 sec) 
Heartbeat CPU  0 instructions:  443000003 cycles:  365075998 heartbeat IPC: 1.04188 cumulative IPC: 1.09059 (Simulation time: 0 hr 15 min 2 sec) 
Heartbeat CPU  0 instructions:  444000000 cycles:  366034923 heartbeat IPC: 1.04283 cumulative IPC: 1.09044 (Simulation time: 0 hr 15 min 4 sec) 
Heartbeat CPU  0 instructions:  445000001 cycles:  366994548 heartbeat IPC: 1.04207 cumulative IPC: 1.09029 (Simulation time: 0 hr 15 min 6 sec) 
Heartbeat CPU  0 instructions:  446000001 cycles:  367954737 heartbeat IPC: 1.04146 cumulative IPC: 1.09015 (Simulation time: 0 hr 15 min 8 sec) 
Heartbeat CPU  0 instructions:  447000002 cycles:  368913712 heartbeat IPC: 1.04278 cumulative IPC: 1.09000 (Simulation time: 0 hr 15 min 11 sec) 
Heartbeat CPU  0 instructions:  448000000 cycles:  369874039 heartbeat IPC: 1.04131 cumulative IPC: 1.08986 (Simulation time: 0 hr 15 min 13 sec) 
Heartbeat CPU  0 instructions:  449000003 cycles:  370833459 heartbeat IPC: 1.04230 cumulative IPC: 1.08972 (Simulation time: 0 hr 15 min 15 sec) 
Heartbeat CPU  0 instructions:  450000002 cycles:  371793654 heartbeat IPC: 1.04145 cumulative IPC: 1.08957 (Simulation time: 0 hr 15 min 17 sec) 
Heartbeat CPU  0 instructions:  451000000 cycles:  372753607 heartbeat IPC: 1.04172 cumulative IPC: 1.08943 (Simulation time: 0 hr 15 min 19 sec) 
Heartbeat CPU  0 instructions:  452000000 cycles:  373712670 heartbeat IPC: 1.04268 cumulative IPC: 1.08929 (Simulation time: 0 hr 15 min 22 sec) 
Heartbeat CPU  0 instructions:  453000003 cycles:  374672617 heartbeat IPC: 1.04173 cumulative IPC: 1.08915 (Simulation time: 0 hr 15 min 24 sec) 
Heartbeat CPU  0 instructions:  454000000 cycles:  375631700 heartbeat IPC: 1.04266 cumulative IPC: 1.08901 (Simulation time: 0 hr 15 min 26 sec) 
Heartbeat CPU  0 instructions:  455000002 cycles:  376592214 heartbeat IPC: 1.04111 cumulative IPC: 1.08887 (Simulation time: 0 hr 15 min 28 sec) 
Heartbeat CPU  0 instructions:  456000000 cycles:  377550650 heartbeat IPC: 1.04336 cumulative IPC: 1.08874 (Simulation time: 0 hr 15 min 30 sec) 
Heartbeat CPU  0 instructions:  457000000 cycles:  378510704 heartbeat IPC: 1.04161 cumulative IPC: 1.08860 (Simulation time: 0 hr 15 min 32 sec) 
Heartbeat CPU  0 instructions:  458000002 cycles:  379469763 heartbeat IPC: 1.04269 cumulative IPC: 1.08847 (Simulation time: 0 hr 15 min 35 sec) 
Heartbeat CPU  0 instructions:  459000003 cycles:  380428581 heartbeat IPC: 1.04295 cumulative IPC: 1.08833 (Simulation time: 0 hr 15 min 37 sec) 
Heartbeat CPU  0 instructions:  460000000 cycles:  381844291 heartbeat IPC: 0.70636 cumulative IPC: 1.08670 (Simulation time: 0 hr 15 min 39 sec) 
Heartbeat CPU  0 instructions:  461000000 cycles:  383052639 heartbeat IPC: 0.82758 cumulative IPC: 1.08576 (Simulation time: 0 hr 15 min 41 sec) 
Heartbeat CPU  0 instructions:  462000000 cycles:  383928182 heartbeat IPC: 1.14215 cumulative IPC: 1.08591 (Simulation time: 0 hr 15 min 43 sec) 
Heartbeat CPU  0 instructions:  463000001 cycles:  384794296 heartbeat IPC: 1.15458 cumulative IPC: 1.08608 (Simulation time: 0 hr 15 min 45 sec) 
Heartbeat CPU  0 instructions:  464000000 cycles:  385666692 heartbeat IPC: 1.14627 cumulative IPC: 1.08624 (Simulation time: 0 hr 15 min 47 sec) 
Heartbeat CPU  0 instructions:  465000002 cycles:  386546016 heartbeat IPC: 1.13724 cumulative IPC: 1.08637 (Simulation time: 0 hr 15 min 49 sec) 
Heartbeat CPU  0 instructions:  466000000 cycles:  387427645 heartbeat IPC: 1.13426 cumulative IPC: 1.08650 (Simulation time: 0 hr 15 min 51 sec) 
Heartbeat CPU  0 instructions:  467000001 cycles:  388295326 heartbeat IPC: 1.15250 cumulative IPC: 1.08667 (Simulation time: 0 hr 15 min 53 sec) 
Heartbeat CPU  0 instructions:  468000000 cycles:  389162978 heartbeat IPC: 1.15253 cumulative IPC: 1.08684 (Simulation time: 0 hr 15 min 55 sec) 
Heartbeat CPU  0 instructions:  469000003 cycles:  390856343 heartbeat IPC: 0.59054 cumulative IPC: 1.08437 (Simulation time: 0 hr 15 min 57 sec) 
Heartbeat CPU  0 instructions:  470000001 cycles:  391710747 heartbeat IPC: 1.17040 cumulative IPC: 1.08458 (Simulation time: 0 hr 15 min 59 sec) 
Heartbeat CPU  0 instructions:  471000001 cycles:  392573876 heartbeat IPC: 1.15858 cumulative IPC: 1.08477 (Simulation time: 0 hr 16 min 1 sec) 
Heartbeat CPU  0 instructions:  472000000 cycles:  393434033 heartbeat IPC: 1.16258 cumulative IPC: 1.08497 (Simulation time: 0 hr 16 min 3 sec) 
Heartbeat CPU  0 instructions:  473000002 cycles:  394290698 heartbeat IPC: 1.16732 cumulative IPC: 1.08517 (Simulation time: 0 hr 16 min 5 sec) 
Heartbeat CPU  0 instructions:  474000001 cycles:  395145858 heartbeat IPC: 1.16937 cumulative IPC: 1.08538 (Simulation time: 0 hr 16 min 7 sec) 
Heartbeat CPU  0 instructions:  475000001 cycles:  396002536 heartbeat IPC: 1.16730 cumulative IPC: 1.08558 (Simulation time: 0 hr 16 min 9 sec) 
Heartbeat CPU  0 instructions:  476000000 cycles:  396859398 heartbeat IPC: 1.16705 cumulative IPC: 1.08579 (Simulation time: 0 hr 16 min 11 sec) 
Heartbeat CPU  0 instructions:  477000002 cycles:  397718106 heartbeat IPC: 1.16454 cumulative IPC: 1.08598 (Simulation time: 0 hr 16 min 13 sec) 
Heartbeat CPU  0 instructions:  478000000 cycles:  399343429 heartbeat IPC: 0.61526 cumulative IPC: 1.08379 (Simulation time: 0 hr 16 min 16 sec) 
Heartbeat CPU  0 instructions:  479000002 cycles:  400244535 heartbeat IPC: 1.10975 cumulative IPC: 1.08385 (Simulation time: 0 hr 16 min 18 sec) 
Heartbeat CPU  0 instructions:  480000000 cycles:  401124572 heartbeat IPC: 1.13631 cumulative IPC: 1.08399 (Simulation time: 0 hr 16 min 20 sec) 
Heartbeat CPU  0 instructions:  481000003 cycles:  402026913 heartbeat IPC: 1.10823 cumulative IPC: 1.08405 (Simulation time: 0 hr 16 min 22 sec) 
Heartbeat CPU  0 instructions:  482000003 cycles:  402924729 heartbeat IPC: 1.11381 cumulative IPC: 1.08412 (Simulation time: 0 hr 16 min 24 sec) 
Heartbeat CPU  0 instructions:  483000003 cycles:  403829256 heartbeat IPC: 1.10555 cumulative IPC: 1.08418 (Simulation time: 0 hr 16 min 26 sec) 
Heartbeat CPU  0 instructions:  484000000 cycles:  404719128 heartbeat IPC: 1.12375 cumulative IPC: 1.08428 (Simulation time: 0 hr 16 min 28 sec) 
Heartbeat CPU  0 instructions:  485000002 cycles:  405606373 heartbeat IPC: 1.12709 cumulative IPC: 1.08438 (Simulation time: 0 hr 16 min 30 sec) 
Heartbeat CPU  0 instructions:  486000000 cycles:  406529047 heartbeat IPC: 1.08380 cumulative IPC: 1.08438 (Simulation time: 0 hr 16 min 32 sec) 
Heartbeat CPU  0 instructions:  487000000 cycles:  408178499 heartbeat IPC: 0.60626 cumulative IPC: 1.08218 (Simulation time: 0 hr 16 min 34 sec) 
Heartbeat CPU  0 instructions:  488000000 cycles:  409272170 heartbeat IPC: 0.91435 cumulative IPC: 1.08167 (Simulation time: 0 hr 16 min 37 sec) 
Heartbeat CPU  0 instructions:  489000000 cycles:  410378504 heartbeat IPC: 0.90389 cumulative IPC: 1.08112 (Simulation time: 0 hr 16 min 39 sec) 
Heartbeat CPU  0 instructions:  490000003 cycles:  411472555 heartbeat IPC: 0.91404 cumulative IPC: 1.08061 (Simulation time: 0 hr 16 min 42 sec) 
Heartbeat CPU  0 instructions:  491000003 cycles:  412608813 heartbeat IPC: 0.88008 cumulative IPC: 1.07998 (Simulation time: 0 hr 16 min 44 sec) 
Heartbeat CPU  0 instructions:  492000000 cycles:  413707703 heartbeat IPC: 0.91001 cumulative IPC: 1.07947 (Simulation time: 0 hr 16 min 46 sec) 
Heartbeat CPU  0 instructions:  493000001 cycles:  414810503 heartbeat IPC: 0.90678 cumulative IPC: 1.07895 (Simulation time: 0 hr 16 min 49 sec) 
Heartbeat CPU  0 instructions:  494000000 cycles:  415913963 heartbeat IPC: 0.90624 cumulative IPC: 1.07842 (Simulation time: 0 hr 16 min 51 sec) 
Heartbeat CPU  0 instructions:  495000000 cycles:  417044493 heartbeat IPC: 0.88454 cumulative IPC: 1.07783 (Simulation time: 0 hr 16 min 54 sec) 
Heartbeat CPU  0 instructions:  496000000 cycles:  418148834 heartbeat IPC: 0.90552 cumulative IPC: 1.07731 (Simulation time: 0 hr 16 min 56 sec) 
Heartbeat CPU  0 instructions:  497000002 cycles:  419248814 heartbeat IPC: 0.90911 cumulative IPC: 1.07681 (Simulation time: 0 hr 16 min 59 sec) 
Heartbeat CPU  0 instructions:  498000001 cycles:  420355472 heartbeat IPC: 0.90362 cumulative IPC: 1.07629 (Simulation time: 0 hr 17 min 1 sec) 
Heartbeat CPU  0 instructions:  499000000 cycles:  421492278 heartbeat IPC: 0.87966 cumulative IPC: 1.07569 (Simulation time: 0 hr 17 min 4 sec) 
Heartbeat CPU  0 instructions:  500000000 cycles:  422591879 heartbeat IPC: 0.90942 cumulative IPC: 1.07519 (Simulation time: 0 hr 17 min 6 sec) 
Heartbeat CPU  0 instructions:  501000003 cycles:  423699421 heartbeat IPC: 0.90290 cumulative IPC: 1.07468 (Simulation time: 0 hr 17 min 8 sec) 
Heartbeat CPU  0 instructions:  502000002 cycles:  424802896 heartbeat IPC: 0.90623 cumulative IPC: 1.07419 (Simulation time: 0 hr 17 min 11 sec) 
Heartbeat CPU  0 instructions:  503000000 cycles:  425929435 heartbeat IPC: 0.88767 cumulative IPC: 1.07363 (Simulation time: 0 hr 17 min 13 sec) 
Heartbeat CPU  0 instructions:  504000000 cycles:  427029352 heartbeat IPC: 0.90916 cumulative IPC: 1.07315 (Simulation time: 0 hr 17 min 16 sec) 
Heartbeat CPU  0 instructions:  505000000 cycles:  428132727 heartbeat IPC: 0.90631 cumulative IPC: 1.07266 (Simulation time: 0 hr 17 min 18 sec) 
Heartbeat CPU  0 instructions:  506000003 cycles:  429239269 heartbeat IPC: 0.90372 cumulative IPC: 1.07217 (Simulation time: 0 hr 17 min 21 sec) 
Heartbeat CPU  0 instructions:  507000002 cycles:  430365061 heartbeat IPC: 0.88826 cumulative IPC: 1.07162 (Simulation time: 0 hr 17 min 23 sec) 
Heartbeat CPU  0 instructions:  508000000 cycles:  431468431 heartbeat IPC: 0.90631 cumulative IPC: 1.07114 (Simulation time: 0 hr 17 min 25 sec) 
Heartbeat CPU  0 instructions:  509000001 cycles:  432571044 heartbeat IPC: 0.90694 cumulative IPC: 1.07067 (Simulation time: 0 hr 17 min 28 sec) 
Heartbeat CPU  0 instructions:  510000000 cycles:  433677253 heartbeat IPC: 0.90399 cumulative IPC: 1.07019 (Simulation time: 0 hr 17 min 30 sec) 
Heartbeat CPU  0 instructions:  511000001 cycles:  434782287 heartbeat IPC: 0.90495 cumulative IPC: 1.06971 (Simulation time: 0 hr 17 min 33 sec) 
Heartbeat CPU  0 instructions:  512000000 cycles:  435905302 heartbeat IPC: 0.89046 cumulative IPC: 1.06919 (Simulation time: 0 hr 17 min 35 sec) 
Heartbeat CPU  0 instructions:  513000000 cycles:  437007702 heartbeat IPC: 0.90711 cumulative IPC: 1.06873 (Simulation time: 0 hr 17 min 38 sec) 
Heartbeat CPU  0 instructions:  514000000 cycles:  438121962 heartbeat IPC: 0.89746 cumulative IPC: 1.06823 (Simulation time: 0 hr 17 min 40 sec) 
Heartbeat CPU  0 instructions:  515000003 cycles:  439219614 heartbeat IPC: 0.91104 cumulative IPC: 1.06779 (Simulation time: 0 hr 17 min 42 sec) 
Heartbeat CPU  0 instructions:  516000000 cycles:  440352717 heartbeat IPC: 0.88253 cumulative IPC: 1.06725 (Simulation time: 0 hr 17 min 45 sec) 
Heartbeat CPU  0 instructions:  517000001 cycles:  441449441 heartbeat IPC: 0.91181 cumulative IPC: 1.06681 (Simulation time: 0 hr 17 min 47 sec) 
Heartbeat CPU  0 instructions:  518000001 cycles:  442555344 heartbeat IPC: 0.90424 cumulative IPC: 1.06636 (Simulation time: 0 hr 17 min 50 sec) 
Heartbeat CPU  0 instructions:  519000000 cycles:  443662121 heartbeat IPC: 0.90352 cumulative IPC: 1.06590 (Simulation time: 0 hr 17 min 52 sec) 
Heartbeat CPU  0 instructions:  520000000 cycles:  444790398 heartbeat IPC: 0.88631 cumulative IPC: 1.06538 (Simulation time: 0 hr 17 min 55 sec) 
Heartbeat CPU  0 instructions:  521000002 cycles:  445894702 heartbeat IPC: 0.90555 cumulative IPC: 1.06494 (Simulation time: 0 hr 17 min 57 sec) 
Heartbeat CPU  0 instructions:  522000002 cycles:  447001212 heartbeat IPC: 0.90374 cumulative IPC: 1.06449 (Simulation time: 0 hr 17 min 59 sec) 
Heartbeat CPU  0 instructions:  523000001 cycles:  448110460 heartbeat IPC: 0.90151 cumulative IPC: 1.06403 (Simulation time: 0 hr 18 min 2 sec) 
Heartbeat CPU  0 instructions:  524000000 cycles:  449517774 heartbeat IPC: 0.71057 cumulative IPC: 1.06279 (Simulation time: 0 hr 18 min 4 sec) 
Heartbeat CPU  0 instructions:  525000000 cycles:  450583750 heartbeat IPC: 0.93811 cumulative IPC: 1.06245 (Simulation time: 0 hr 18 min 6 sec) 
Heartbeat CPU  0 instructions:  526000001 cycles:  451463610 heartbeat IPC: 1.13655 cumulative IPC: 1.06262 (Simulation time: 0 hr 18 min 9 sec) 
Heartbeat CPU  0 instructions:  527000001 cycles:  452349298 heartbeat IPC: 1.12907 cumulative IPC: 1.06276 (Simulation time: 0 hr 18 min 11 sec) 
Heartbeat CPU  0 instructions:  528000000 cycles:  453236882 heartbeat IPC: 1.12665 cumulative IPC: 1.06290 (Simulation time: 0 hr 18 min 13 sec) 
Heartbeat CPU  0 instructions:  529000003 cycles:  454130437 heartbeat IPC: 1.11913 cumulative IPC: 1.06303 (Simulation time: 0 hr 18 min 15 sec) 
Heartbeat CPU  0 instructions:  530000002 cycles:  455006745 heartbeat IPC: 1.14115 cumulative IPC: 1.06320 (Simulation time: 0 hr 18 min 17 sec) 
Heartbeat CPU  0 instructions:  531000001 cycles:  455881418 heartbeat IPC: 1.14328 cumulative IPC: 1.06337 (Simulation time: 0 hr 18 min 19 sec) 
Heartbeat CPU  0 instructions:  532000000 cycles:  456754439 heartbeat IPC: 1.14545 cumulative IPC: 1.06355 (Simulation time: 0 hr 18 min 21 sec) 
Heartbeat CPU  0 instructions:  533000003 cycles:  457860815 heartbeat IPC: 0.90385 cumulative IPC: 1.06311 (Simulation time: 0 hr 18 min 23 sec) 
Heartbeat CPU  0 instructions:  534000001 cycles:  458712974 heartbeat IPC: 1.17349 cumulative IPC: 1.06334 (Simulation time: 0 hr 18 min 25 sec) 
Heartbeat CPU  0 instructions:  535000000 cycles:  459617796 heartbeat IPC: 1.10519 cumulative IPC: 1.06344 (Simulation time: 0 hr 18 min 28 sec) 
Heartbeat CPU  0 instructions:  536000000 cycles:  460506485 heartbeat IPC: 1.12525 cumulative IPC: 1.06357 (Simulation time: 0 hr 18 min 30 sec) 
Heartbeat CPU  0 instructions:  537000003 cycles:  461384260 heartbeat IPC: 1.13925 cumulative IPC: 1.06373 (Simulation time: 0 hr 18 min 32 sec) 
Heartbeat CPU  0 instructions:  538000003 cycles:  462257071 heartbeat IPC: 1.14572 cumulative IPC: 1.06391 (Simulation time: 0 hr 18 min 34 sec) 
Heartbeat CPU  0 instructions:  539000001 cycles:  463121825 heartbeat IPC: 1.15640 cumulative IPC: 1.06410 (Simulation time: 0 hr 18 min 36 sec) 
Heartbeat CPU  0 instructions:  540000000 cycles:  463995738 heartbeat IPC: 1.14428 cumulative IPC: 1.06427 (Simulation time: 0 hr 18 min 38 sec) 
Heartbeat CPU  0 instructions:  541000003 cycles:  464857136 heartbeat IPC: 1.16091 cumulative IPC: 1.06447 (Simulation time: 0 hr 18 min 40 sec) 
Heartbeat CPU  0 instructions:  542000000 cycles:  465719521 heartbeat IPC: 1.15957 cumulative IPC: 1.06467 (Simulation time: 0 hr 18 min 42 sec) 
Heartbeat CPU  0 instructions:  543000000 cycles:  466559644 heartbeat IPC: 1.19030 cumulative IPC: 1.06492 (Simulation time: 0 hr 18 min 44 sec) 
Heartbeat CPU  0 instructions:  544000000 cycles:  467363505 heartbeat IPC: 1.24400 cumulative IPC: 1.06527 (Simulation time: 0 hr 18 min 46 sec) 
Heartbeat CPU  0 instructions:  545000003 cycles:  468259062 heartbeat IPC: 1.11663 cumulative IPC: 1.06538 (Simulation time: 0 hr 18 min 48 sec) 
Heartbeat CPU  0 instructions:  546000002 cycles:  469138394 heartbeat IPC: 1.13723 cumulative IPC: 1.06553 (Simulation time: 0 hr 18 min 51 sec) 
Heartbeat CPU  0 instructions:  547000002 cycles:  470016444 heartbeat IPC: 1.13889 cumulative IPC: 1.06568 (Simulation time: 0 hr 18 min 53 sec) 
Heartbeat CPU  0 instructions:  548000000 cycles:  470889805 heartbeat IPC: 1.14500 cumulative IPC: 1.06585 (Simulation time: 0 hr 18 min 55 sec) 
Heartbeat CPU  0 instructions:  549000003 cycles:  471762971 heartbeat IPC: 1.14526 cumulative IPC: 1.06601 (Simulation time: 0 hr 18 min 57 sec) 
Heartbeat CPU  0 instructions:  550000000 cycles:  472634832 heartbeat IPC: 1.14697 cumulative IPC: 1.06618 (Simulation time: 0 hr 18 min 59 sec) 
Heartbeat CPU  0 instructions:  551000000 cycles:  473498673 heartbeat IPC: 1.15762 cumulative IPC: 1.06636 (Simulation time: 0 hr 19 min 1 sec) 
Heartbeat CPU  0 instructions:  552000000 cycles:  474357914 heartbeat IPC: 1.16382 cumulative IPC: 1.06656 (Simulation time: 0 hr 19 min 3 sec) 
Heartbeat CPU  0 instructions:  553000000 cycles:  475223337 heartbeat IPC: 1.15550 cumulative IPC: 1.06674 (Simulation time: 0 hr 19 min 5 sec) 
Heartbeat CPU  0 instructions:  554000000 cycles:  476040564 heartbeat IPC: 1.22365 cumulative IPC: 1.06704 (Simulation time: 0 hr 19 min 7 sec) 
Heartbeat CPU  0 instructions:  555000002 cycles:  476920373 heartbeat IPC: 1.13661 cumulative IPC: 1.06719 (Simulation time: 0 hr 19 min 9 sec) 
Heartbeat CPU  0 instructions:  556000000 cycles:  477802904 heartbeat IPC: 1.13310 cumulative IPC: 1.06732 (Simulation time: 0 hr 19 min 12 sec) 
Heartbeat CPU  0 instructions:  557000000 cycles:  478680712 heartbeat IPC: 1.13920 cumulative IPC: 1.06747 (Simulation time: 0 hr 19 min 14 sec) 
Heartbeat CPU  0 instructions:  558000000 cycles:  479555867 heartbeat IPC: 1.14265 cumulative IPC: 1.06762 (Simulation time: 0 hr 19 min 16 sec) 
Heartbeat CPU  0 instructions:  559000000 cycles:  480429590 heartbeat IPC: 1.14453 cumulative IPC: 1.06778 (Simulation time: 0 hr 19 min 18 sec) 
Heartbeat CPU  0 instructions:  560000000 cycles:  481303687 heartbeat IPC: 1.14404 cumulative IPC: 1.06794 (Simulation time: 0 hr 19 min 20 sec) 
Heartbeat CPU  0 instructions:  561000001 cycles:  482172222 heartbeat IPC: 1.15137 cumulative IPC: 1.06810 (Simulation time: 0 hr 19 min 22 sec) 
Heartbeat CPU  0 instructions:  562000003 cycles:  483034783 heartbeat IPC: 1.15934 cumulative IPC: 1.06829 (Simulation time: 0 hr 19 min 24 sec) 
Heartbeat CPU  0 instructions:  563000000 cycles:  483898730 heartbeat IPC: 1.15747 cumulative IPC: 1.06846 (Simulation time: 0 hr 19 min 26 sec) 
Heartbeat CPU  0 instructions:  564000000 cycles:  484734312 heartbeat IPC: 1.19677 cumulative IPC: 1.06871 (Simulation time: 0 hr 19 min 28 sec) 
Heartbeat CPU  0 instructions:  565000003 cycles:  485543015 heartbeat IPC: 1.23655 cumulative IPC: 1.06902 (Simulation time: 0 hr 19 min 30 sec) 
Heartbeat CPU  0 instructions:  566000003 cycles:  486471361 heartbeat IPC: 1.07718 cumulative IPC: 1.06904 (Simulation time: 0 hr 19 min 32 sec) 
Heartbeat CPU  0 instructions:  567000001 cycles:  487349490 heartbeat IPC: 1.13878 cumulative IPC: 1.06918 (Simulation time: 0 hr 19 min 35 sec) 
Heartbeat CPU  0 instructions:  568000000 cycles:  488227793 heartbeat IPC: 1.13856 cumulative IPC: 1.06932 (Simulation time: 0 hr 19 min 37 sec) 
Heartbeat CPU  0 instructions:  569000002 cycles:  489099554 heartbeat IPC: 1.14711 cumulative IPC: 1.06947 (Simulation time: 0 hr 19 min 39 sec) 
Heartbeat CPU  0 instructions:  570000000 cycles:  489973241 heartbeat IPC: 1.14457 cumulative IPC: 1.06962 (Simulation time: 0 hr 19 min 41 sec) 
Heartbeat CPU  0 instructions:  571000002 cycles:  490847674 heartbeat IPC: 1.14360 cumulative IPC: 1.06977 (Simulation time: 0 hr 19 min 43 sec) 
Heartbeat CPU  0 instructions:  572000000 cycles:  491708252 heartbeat IPC: 1.16201 cumulative IPC: 1.06995 (Simulation time: 0 hr 19 min 45 sec) 
Heartbeat CPU  0 instructions:  573000001 cycles:  492566545 heartbeat IPC: 1.16510 cumulative IPC: 1.07013 (Simulation time: 0 hr 19 min 47 sec) 
Heartbeat CPU  0 instructions:  574000003 cycles:  493429876 heartbeat IPC: 1.15831 cumulative IPC: 1.07031 (Simulation time: 0 hr 19 min 49 sec) 
Heartbeat CPU  0 instructions:  575000000 cycles:  494234435 heartbeat IPC: 1.24291 cumulative IPC: 1.07062 (Simulation time: 0 hr 19 min 51 sec) 
Heartbeat CPU  0 instructions:  576000000 cycles:  495141831 heartbeat IPC: 1.10205 cumulative IPC: 1.07068 (Simulation time: 0 hr 19 min 53 sec) 
Heartbeat CPU  0 instructions:  577000000 cycles:  496025437 heartbeat IPC: 1.13173 cumulative IPC: 1.07081 (Simulation time: 0 hr 19 min 55 sec) 
Heartbeat CPU  0 instructions:  578000002 cycles:  496905193 heartbeat IPC: 1.13668 cumulative IPC: 1.07094 (Simulation time: 0 hr 19 min 58 sec) 
Heartbeat CPU  0 instructions:  579000001 cycles:  497783618 heartbeat IPC: 1.13840 cumulative IPC: 1.07107 (Simulation time: 0 hr 20 min 0 sec) 
Heartbeat CPU  0 instructions:  580000000 cycles:  498664773 heartbeat IPC: 1.13487 cumulative IPC: 1.07119 (Simulation time: 0 hr 20 min 2 sec) 
Heartbeat CPU  0 instructions:  581000002 cycles:  499545772 heartbeat IPC: 1.13508 cumulative IPC: 1.07132 (Simulation time: 0 hr 20 min 4 sec) 
Heartbeat CPU  0 instructions:  582000000 cycles:  500409626 heartbeat IPC: 1.15760 cumulative IPC: 1.07148 (Simulation time: 0 hr 20 min 6 sec) 
Heartbeat CPU  0 instructions:  583000003 cycles:  501271208 heartbeat IPC: 1.16066 cumulative IPC: 1.07165 (Simulation time: 0 hr 20 min 8 sec) 
Heartbeat CPU  0 instructions:  584000000 cycles:  502132979 heartbeat IPC: 1.16040 cumulative IPC: 1.07182 (Simulation time: 0 hr 20 min 10 sec) 
Heartbeat CPU  0 instructions:  585000002 cycles:  502961552 heartbeat IPC: 1.20690 cumulative IPC: 1.07207 (Simulation time: 0 hr 20 min 12 sec) 
Heartbeat CPU  0 instructions:  586000003 cycles:  503767555 heartbeat IPC: 1.24069 cumulative IPC: 1.07237 (Simulation time: 0 hr 20 min 14 sec) 
Heartbeat CPU  0 instructions:  587000001 cycles:  504705739 heartbeat IPC: 1.06589 cumulative IPC: 1.07236 (Simulation time: 0 hr 20 min 16 sec) 
Heartbeat CPU  0 instructions:  588000000 cycles:  505580006 heartbeat IPC: 1.14381 cumulative IPC: 1.07250 (Simulation time: 0 hr 20 min 18 sec) 
Heartbeat CPU  0 instructions:  589000002 cycles:  506459025 heartbeat IPC: 1.13763 cumulative IPC: 1.07262 (Simulation time: 0 hr 20 min 21 sec) 
Heartbeat CPU  0 instructions:  590000001 cycles:  507339208 heartbeat IPC: 1.13613 cumulative IPC: 1.07274 (Simulation time: 0 hr 20 min 23 sec) 
Heartbeat CPU  0 instructions:  591000002 cycles:  508218016 heartbeat IPC: 1.13791 cumulative IPC: 1.07287 (Simulation time: 0 hr 20 min 25 sec) 
Heartbeat CPU  0 instructions:  592000000 cycles:  509087307 heartbeat IPC: 1.15036 cumulative IPC: 1.07302 (Simulation time: 0 hr 20 min 27 sec) 
Heartbeat CPU  0 instructions:  593000003 cycles:  509955445 heartbeat IPC: 1.15189 cumulative IPC: 1.07316 (Simulation time: 0 hr 20 min 29 sec) 
Heartbeat CPU  0 instructions:  594000000 cycles:  510817953 heartbeat IPC: 1.15941 cumulative IPC: 1.07333 (Simulation time: 0 hr 20 min 31 sec) 
Heartbeat CPU  0 instructions:  595000003 cycles:  511673347 heartbeat IPC: 1.16906 cumulative IPC: 1.07350 (Simulation time: 0 hr 20 min 33 sec) 
Heartbeat CPU  0 instructions:  596000000 cycles:  512480802 heartbeat IPC: 1.23846 cumulative IPC: 1.07379 (Simulation time: 0 hr 20 min 35 sec) 
Heartbeat CPU  0 instructions:  597000001 cycles:  513381787 heartbeat IPC: 1.10990 cumulative IPC: 1.07386 (Simulation time: 0 hr 20 min 37 sec) 
Heartbeat CPU  0 instructions:  598000002 cycles:  514260329 heartbeat IPC: 1.13825 cumulative IPC: 1.07398 (Simulation time: 0 hr 20 min 39 sec) 
Heartbeat CPU  0 instructions:  599000000 cycles:  515137152 heartbeat IPC: 1.14048 cumulative IPC: 1.07411 (Simulation time: 0 hr 20 min 42 sec) 
Heartbeat CPU  0 instructions:  600000000 cycles:  516019898 heartbeat IPC: 1.13283 cumulative IPC: 1.07422 (Simulation time: 0 hr 20 min 44 sec) 
Finished CPU 0 instructions: 500000001 cycles: 465453657 cumulative IPC: 1.07422 (Simulation time: 0 hr 20 min 44 sec) 

ChampSim completed all CPUs

[ROI Statistics]
Core_0_instructions 500000001
Core_0_cycles 465453657
Core_0_IPC 1.07422

Core_0_branch_prediction_accuracy 99.14585
Core_0_branch_MPKI 0.18961
Core_0_average_ROB_occupancy_at_mispredict 243.85079

Core_0_L1D_total_access 146887704
Core_0_L1D_total_hit 142036700
Core_0_L1D_total_miss 4851004
Core_0_L1D_loads 135666763
Core_0_L1D_load_hit 132206663
Core_0_L1D_load_miss 3460100
Core_0_L1D_RFOs 11220941
Core_0_L1D_RFO_hit 9830037
Core_0_L1D_RFO_miss 1390904
Core_0_L1D_prefetches 0
Core_0_L1D_prefetch_hit 0
Core_0_L1D_prefetch_miss 0
Core_0_L1D_writebacks 0
Core_0_L1D_writeback_hit 0
Core_0_L1D_writeback_miss 0
Core_0_L1D_prefetch_requested 0
Core_0_L1D_prefetch_dropped 0
Core_0_L1D_prefetch_issued 0
Core_0_L1D_prefetch_filled 0
Core_0_L1D_prefetch_useful 0
Core_0_L1D_prefetch_useless 0
Core_0_L1D_prefetch_late 0
Core_0_L1D_average_miss_latency 71.77064

Core_0_L1D_rq_access 196253249
Core_0_L1D_rq_forward 0
Core_0_L1D_rq_merged 59754109
Core_0_L1D_rq_to_cache 136499140
Core_0_L1D_rq_full 0

Core_0_L1D_wq_access 15647860
Core_0_L1D_wq_forward 0
Core_0_L1D_wq_merged 1
Core_0_L1D_wq_to_cache 15647859
Core_0_L1D_wq_full 244280

Core_0_L1D_pq_access 0
Core_0_L1D_pq_forward 0
Core_0_L1D_pq_merged 0
Core_0_L1D_pq_to_cache 0
Core_0_L1D_pq_full 0

Core_0_L1D_acc_epochs 498251
Core_0_L1D_acc_level_0 498251
Core_0_L1D_acc_level_1 0
Core_0_L1D_acc_level_2 0
Core_0_L1D_acc_level_3 0
Core_0_L1D_acc_level_4 0
Core_0_L1D_acc_level_5 0
Core_0_L1D_acc_level_6 0
Core_0_L1D_acc_level_7 0
Core_0_L1D_acc_level_8 0
Core_0_L1D_acc_level_9 0

Core_0_L1I_total_access 116430755
Core_0_L1I_total_hit 116430379
Core_0_L1I_total_miss 376
Core_0_L1I_loads 116430755
Core_0_L1I_load_hit 116430379
Core_0_L1I_load_miss 376
Core_0_L1I_RFOs 0
Core_0_L1I_RFO_hit 0
Core_0_L1I_RFO_miss 0
Core_0_L1I_prefetches 0
Core_0_L1I_prefetch_hit 0
Core_0_L1I_prefetch_miss 0
Core_0_L1I_writebacks 0
Core_0_L1I_writeback_hit 0
Core_0_L1I_writeback_miss 0
Core_0_L1I_prefetch_requested 0
Core_0_L1I_prefetch_dropped 0
Core_0_L1I_prefetch_issued 0
Core_0_L1I_prefetch_filled 0
Core_0_L1I_prefetch_useful 0
Core_0_L1I_prefetch_useless 0
Core_0_L1I_prefetch_late 0
Core_0_L1I_average_miss_latency 283.55851

Core_0_L1I_rq_access 500000000
Core_0_L1I_rq_forward 0
Core_0_L1I_rq_merged 383568210
Core_0_L1I_rq_to_cache 116431790
Core_0_L1I_rq_full 0

Core_0_L1I_wq_access 0
Core_0_L1I_wq_forward 0
Core_0_L1I_wq_merged 0
Core_0_L1I_wq_to_cache 0
Core_0_L1I_wq_full 0

Core_0_L1I_pq_access 0
Core_0_L1I_pq_forward 0
Core_0_L1I_pq_merged 0
Core_0_L1I_pq_to_cache 0
Core_0_L1I_pq_full 0

Core_0_L1I_acc_epochs 498251
Core_0_L1I_acc_level_0 498251
Core_0_L1I_acc_level_1 0
Core_0_L1I_acc_level_2 0
Core_0_L1I_acc_level_3 0
Core_0_L1I_acc_level_4 0
Core_0_L1I_acc_level_5 0
Core_0_L1I_acc_level_6 0
Core_0_L1I_acc_level_7 0
Core_0_L1I_acc_level_8 0
Core_0_L1I_acc_level_9 0

Core_0_L2C_total_access 8968345
Core_0_L2C_total_hit 5291307
Core_0_L2C_total_miss 3677038
Core_0_L2C_loads 3460444
Core_0_L2C_load_hit 3234926
Core_0_L2C_load_miss 225518
Core_0_L2C_RFOs 1390872
Core_0_L2C_RFO_hit 379722
Core_0_L2C_RFO_miss 1011150
Core_0_L2C_prefetches 2458297
Core_0_L2C_prefetch_hit 18567
Core_0_L2C_prefetch_miss 2439730
Core_0_L2C_writebacks 1658732
Core_0_L2C_writeback_hit 1658092
Core_0_L2C_writeback_miss 640
Core_0_L2C_prefetch_requested 3337177
Core_0_L2C_prefetch_dropped 0
Core_0_L2C_prefetch_issued 3337177
Core_0_L2C_prefetch_filled 3187553
Core_0_L2C_prefetch_useful 3153301
Core_0_L2C_prefetch_useless 33691
Core_0_L2C_prefetch_late 934
Core_0_L2C_average_miss_latency 273.27592

Core_0_L2C_rq_access 4851380
Core_0_L2C_rq_forward 0
Core_0_L2C_rq_merged 0
Core_0_L2C_rq_to_cache 4851316
Core_0_L2C_rq_full 0

Core_0_L2C_wq_access 1658732
Core_0_L2C_wq_forward 64
Core_0_L2C_wq_merged 0
Core_0_L2C_wq_to_cache 1658732
Core_0_L2C_wq_full 0

Core_0_L2C_pq_access 3337177
Core_0_L2C_pq_forward 0
Core_0_L2C_pq_merged 0
Core_0_L2C_pq_to_cache 3337177
Core_0_L2C_pq_full 0

Core_0_L2C_acc_epochs 498251
Core_0_L2C_acc_level_0 329568
Core_0_L2C_acc_level_1 47186
Core_0_L2C_acc_level_2 24055
Core_0_L2C_acc_level_3 14779
Core_0_L2C_acc_level_4 8334
Core_0_L2C_acc_level_5 12472
Core_0_L2C_acc_level_6 5482
Core_0_L2C_acc_level_7 7692
Core_0_L2C_acc_level_8 4187
Core_0_L2C_acc_level_9 44496

Core_0_LLC_total_access 4825438
Core_0_LLC_total_hit 549785
Core_0_LLC_total_miss 4275653
Core_0_LLC_loads 224699
Core_0_LLC_load_hit 28927
Core_0_LLC_load_miss 195772
Core_0_LLC_RFOs 1011150
Core_0_LLC_RFO_hit 61589
Core_0_LLC_RFO_miss 949561
Core_0_LLC_prefetches 2479726
Core_0_LLC_prefetch_hit 122120
Core_0_LLC_prefetch_miss 2357606
Core_0_LLC_writebacks 1109863
Core_0_LLC_writeback_hit 337149
Core_0_LLC_writeback_miss 772714
Core_0_LLC_prefetch_requested 0
Core_0_LLC_prefetch_dropped 0
Core_0_LLC_prefetch_issued 0
Core_0_LLC_prefetch_filled 2997246
Core_0_LLC_prefetch_useful 52627
Core_0_LLC_prefetch_useless 2932366
Core_0_LLC_prefetch_late 78
Core_0_LLC_average_miss_latency 210.23163

Core_0_LLC_rq_access 1235849
Core_0_LLC_rq_forward 0
Core_0_LLC_rq_merged 0
Core_0_LLC_rq_to_cache 1235849
Core_0_LLC_rq_full 0

Core_0_LLC_wq_access 1109863
Core_0_LLC_wq_forward 0
Core_0_LLC_wq_merged 0
Core_0_LLC_wq_to_cache 1109863
Core_0_LLC_wq_full 0

Core_0_LLC_pq_access 3279363
Core_0_LLC_pq_forward 0
Core_0_LLC_pq_merged 0
Core_0_LLC_pq_to_cache 3279363
Core_0_LLC_pq_full 0

Core_0_LLC_acc_epochs 503926
Core_0_LLC_acc_level_0 494935
Core_0_LLC_acc_level_1 2725
Core_0_LLC_acc_level_2 1687
Core_0_LLC_acc_level_3 1243
Core_0_LLC_acc_level_4 879
Core_0_LLC_acc_level_5 749
Core_0_LLC_acc_level_6 449
Core_0_LLC_acc_level_7 301
Core_0_LLC_acc_level_8 222
Core_0_LLC_acc_level_9 736

Core_0_major_page_fault 0
Core_0_minor_page_fault 19121

[Bingo] PHT Access: 147624
[Bingo] PHT Hit PC+Addr: 3723
[Bingo] PHT Hit PC+Offs: 134591
[Bingo] PHT Miss: 9310
[Bingo] Prefetch PC+Addr: 0
[Bingo] Prefetch PC+Offs: 0
[Bingo] Useful PC+Addr: 0
[Bingo] Useful PC+Offs: 0
[Bingo] Useless PC+Addr: 0
[Bingo] Useless PC+Offs: 0
[Bingo] L1 Prefetch per Region: 0.00000
[Bingo] L2 Prefetch per Region: 24.65495
[Bingo] L3 Prefetch per Region: 0.70014
[Bingo] No Prefetch per Region: 6.64491
[Bingo] Number of Voters Mean: 13.80805
[Bingo] Number of Voters SD: 4.08041

Channel_0_RQ_row_buffer_hit 2019287
Channel_0_RQ_row_buffer_miss 1483625
Channel_0_WQ_row_buffer_hit 426792
Channel_0_WQ_row_buffer_miss 624375
Channel_0_WQ_full 41275
Channel_0_dbus_congested 1118588

avg_congested_cycle 4

DRAM_bw_pochs 2015703
DRAM_bw_level_0 1841089
DRAM_bw_level_1 92673
DRAM_bw_level_2 44076
DRAM_bw_level_3 37865
