*************************************************
   ChampSim Multicore Out-of-Order Simulator
   Last compiled: Dec 11 2024 17:59:53
*************************************************
parsing config file: /home/functionmain/桌面/Pythia/config/bingo.ini

trace_0 /home/functionmain/桌面/Pythia/traces/437.leslie3d-265B.champsimtrace.xz
adding L2C_PREFETCHER: Bingo
Initialize SHIP state
warmup_instructions 100000000
simulation_instructions 500000000
champsim_seed 223
measure_ipc 0
measure_ipc_epoch 1000
measure_dram_bw 1
measure_dram_bw_epoch 256
measure_cache_acc 1
measure_cache_acc_epoch 1024
l1d_perfect 0
l2c_perfect 0
llc_perfect 0
l1d_semi_perfect 0
l2c_semi_perfect 0
llc_semi_perfect 0
semi_perfect_cache_page_buffer_size 64

num_cpus 1
cpu_freq 4000
dram_io_freq 600
page_size 4096
block_size 64
max_read_per_cycle 8
max_fill_per_cycle 1
dram_channels 1
log2_dram_channels 0
dram_ranks 1
dram_banks 8
dram_rows 65536
dram_columns 128
dram_row_size 8
dram_size 4096
dram_pages 1048576

fetch_width 6
decode_width 6
exec_width 4
lq_width 2
sq_width 2
retire_width 4
scheduler_size 128
branch_mispredict_penalty 20
rob_size 256
lq_size 72
sq_size 56
num_instr_destinations_sparc 4
num_instr_destinations 2
num_instr_sources 4

itlb_set 16
itlb_way 8
itlb_rq_size 16
itlb_wq_size 16
itlb_pq_size 0
itlb_mshr_size 8
itlb_latency 1

dtlb_set 16
dtlb_way 4
dtlb_rq_size 16
dtlb_wq_size 16
dtlb_pq_size 0
dtlb_mshr_size 8
dtlb_latency 1

stlb_set 128
stlb_way 12
stlb_rq_size 32
stlb_wq_size 32
stlb_pq_size 0
stlb_mshr_size 16
stlb_latency 8

l1i_size 32
l1i_set 64
l1i_way 8
l1i_rq_size 64
l1i_wq_size 64
l1i_pq_size 8
l1i_mshr_size 8
l1i_latency 1

l1d_size 32
l1d_set 64
l1d_way 8
l1d_rq_size 64
l1d_wq_size 64
l1d_pq_size 8
l1d_mshr_size 16
l1d_latency 4

l2c_size 256
l2c_set 512
l2c_way 8
l2c_rq_size 32
l2c_wq_size 32
l2c_pq_size 32
l2c_mshr_size 32
l2c_latency 10

llc_size 2048
llc_set 2048
llc_way 16
llc_rq_size 32
llc_wq_size 32
llc_pq_size 32
llc_mshr_size 64
llc_latency 20

dram_channel_width 8
dram_wq_size 64
dram_rq_size 64
tRP 15
tRCD 15
tCAS 12.5
dram_dbus_turn_around_time 30
dram_write_high_wm 56
dram_write_low_wm 48
min_dram_writes_per_switch 16
dram_mtps 600
dram_dbus_return_time 53

bingo_region_size 2048
bingo_pattern_len 32
bingo_pc_width 16
bingo_min_addr_width 5
bingo_max_addr_width 16
bingo_ft_size 64
bingo_at_size 128
bingo_pht_size 4096
bingo_pht_ways 16
bingo_pf_streamer_size 128
bingo_debug_level 0
bingo_l1d_thresh 1.01
bingo_l2c_thresh 0.8
bingo_llc_thresh 0.05
bingo_pc_address_fill_level L2


Heartbeat CPU  0 instructions:    1000003 cycles:     500957 heartbeat IPC: 1.99619 cumulative IPC: 1.99619 (Simulation time: 0 hr 0 min 1 sec) 
Heartbeat CPU  0 instructions:    2000001 cycles:    1000298 heartbeat IPC: 2.00264 cumulative IPC: 1.99941 (Simulation time: 0 hr 0 min 3 sec) 
Heartbeat CPU  0 instructions:    3000001 cycles:    1500104 heartbeat IPC: 2.00078 cumulative IPC: 1.99986 (Simulation time: 0 hr 0 min 5 sec) 
Heartbeat CPU  0 instructions:    4000000 cycles:    1999955 heartbeat IPC: 2.00059 cumulative IPC: 2.00005 (Simulation time: 0 hr 0 min 7 sec) 
Heartbeat CPU  0 instructions:    5000003 cycles:    2498926 heartbeat IPC: 2.00413 cumulative IPC: 2.00086 (Simulation time: 0 hr 0 min 8 sec) 
Heartbeat CPU  0 instructions:    6000001 cycles:    2999090 heartbeat IPC: 1.99934 cumulative IPC: 2.00061 (Simulation time: 0 hr 0 min 10 sec) 
Heartbeat CPU  0 instructions:    7000002 cycles:    3497066 heartbeat IPC: 2.00813 cumulative IPC: 2.00168 (Simulation time: 0 hr 0 min 12 sec) 
Heartbeat CPU  0 instructions:    8000000 cycles:    3997302 heartbeat IPC: 1.99905 cumulative IPC: 2.00135 (Simulation time: 0 hr 0 min 14 sec) 
Heartbeat CPU  0 instructions:    9000003 cycles:    4495120 heartbeat IPC: 2.00877 cumulative IPC: 2.00217 (Simulation time: 0 hr 0 min 15 sec) 
Heartbeat CPU  0 instructions:   10000001 cycles:    4995150 heartbeat IPC: 1.99988 cumulative IPC: 2.00194 (Simulation time: 0 hr 0 min 17 sec) 
Heartbeat CPU  0 instructions:   11000002 cycles:    5492426 heartbeat IPC: 2.01096 cumulative IPC: 2.00276 (Simulation time: 0 hr 0 min 19 sec) 
Heartbeat CPU  0 instructions:   12000000 cycles:    5993364 heartbeat IPC: 1.99625 cumulative IPC: 2.00221 (Simulation time: 0 hr 0 min 20 sec) 
Heartbeat CPU  0 instructions:   13000002 cycles:    6490693 heartbeat IPC: 2.01075 cumulative IPC: 2.00287 (Simulation time: 0 hr 0 min 22 sec) 
Heartbeat CPU  0 instructions:   14000002 cycles:    6991364 heartbeat IPC: 1.99732 cumulative IPC: 2.00247 (Simulation time: 0 hr 0 min 24 sec) 
Heartbeat CPU  0 instructions:   15000000 cycles:    7488909 heartbeat IPC: 2.00986 cumulative IPC: 2.00296 (Simulation time: 0 hr 0 min 26 sec) 
Heartbeat CPU  0 instructions:   16000000 cycles:    7988639 heartbeat IPC: 2.00108 cumulative IPC: 2.00284 (Simulation time: 0 hr 0 min 27 sec) 
Heartbeat CPU  0 instructions:   17000003 cycles:    8487260 heartbeat IPC: 2.00554 cumulative IPC: 2.00300 (Simulation time: 0 hr 0 min 29 sec) 
Heartbeat CPU  0 instructions:   18000003 cycles:    8986866 heartbeat IPC: 2.00158 cumulative IPC: 2.00292 (Simulation time: 0 hr 0 min 31 sec) 
Heartbeat CPU  0 instructions:   19000003 cycles:    9486399 heartbeat IPC: 2.00187 cumulative IPC: 2.00287 (Simulation time: 0 hr 0 min 33 sec) 
Heartbeat CPU  0 instructions:   20000000 cycles:    9985332 heartbeat IPC: 2.00427 cumulative IPC: 2.00294 (Simulation time: 0 hr 0 min 34 sec) 
Heartbeat CPU  0 instructions:   21000000 cycles:   10485713 heartbeat IPC: 1.99848 cumulative IPC: 2.00273 (Simulation time: 0 hr 0 min 36 sec) 
Heartbeat CPU  0 instructions:   22000003 cycles:   10983854 heartbeat IPC: 2.00747 cumulative IPC: 2.00294 (Simulation time: 0 hr 0 min 38 sec) 
Heartbeat CPU  0 instructions:   23000003 cycles:   11484581 heartbeat IPC: 1.99710 cumulative IPC: 2.00269 (Simulation time: 0 hr 0 min 40 sec) 
Heartbeat CPU  0 instructions:   24000000 cycles:   11982844 heartbeat IPC: 2.00697 cumulative IPC: 2.00286 (Simulation time: 0 hr 0 min 41 sec) 
Heartbeat CPU  0 instructions:   25000002 cycles:   12483898 heartbeat IPC: 1.99580 cumulative IPC: 2.00258 (Simulation time: 0 hr 0 min 43 sec) 
Heartbeat CPU  0 instructions:   26000000 cycles:   12982014 heartbeat IPC: 2.00756 cumulative IPC: 2.00277 (Simulation time: 0 hr 0 min 45 sec) 
Heartbeat CPU  0 instructions:   27000000 cycles:   13483701 heartbeat IPC: 1.99327 cumulative IPC: 2.00242 (Simulation time: 0 hr 0 min 47 sec) 
Heartbeat CPU  0 instructions:   28000000 cycles:   13981001 heartbeat IPC: 2.01086 cumulative IPC: 2.00272 (Simulation time: 0 hr 0 min 48 sec) 
Heartbeat CPU  0 instructions:   29000000 cycles:   14481734 heartbeat IPC: 1.99707 cumulative IPC: 2.00252 (Simulation time: 0 hr 0 min 50 sec) 
Heartbeat CPU  0 instructions:   30000000 cycles:   14979456 heartbeat IPC: 2.00915 cumulative IPC: 2.00274 (Simulation time: 0 hr 0 min 52 sec) 
Heartbeat CPU  0 instructions:   31000002 cycles:   15479180 heartbeat IPC: 2.00111 cumulative IPC: 2.00269 (Simulation time: 0 hr 0 min 54 sec) 
Heartbeat CPU  0 instructions:   32000000 cycles:   15977548 heartbeat IPC: 2.00655 cumulative IPC: 2.00281 (Simulation time: 0 hr 0 min 55 sec) 
Heartbeat CPU  0 instructions:   33000000 cycles:   16476560 heartbeat IPC: 2.00396 cumulative IPC: 2.00285 (Simulation time: 0 hr 0 min 57 sec) 
Heartbeat CPU  0 instructions:   34000002 cycles:   16975683 heartbeat IPC: 2.00352 cumulative IPC: 2.00287 (Simulation time: 0 hr 0 min 59 sec) 
Heartbeat CPU  0 instructions:   35000002 cycles:   17473999 heartbeat IPC: 2.00676 cumulative IPC: 2.00298 (Simulation time: 0 hr 1 min 1 sec) 
Heartbeat CPU  0 instructions:   36000000 cycles:   17973746 heartbeat IPC: 2.00101 cumulative IPC: 2.00292 (Simulation time: 0 hr 1 min 2 sec) 
Heartbeat CPU  0 instructions:   37000000 cycles:   18471362 heartbeat IPC: 2.00958 cumulative IPC: 2.00310 (Simulation time: 0 hr 1 min 4 sec) 
Heartbeat CPU  0 instructions:   38000000 cycles:   18971904 heartbeat IPC: 1.99783 cumulative IPC: 2.00296 (Simulation time: 0 hr 1 min 6 sec) 
Heartbeat CPU  0 instructions:   39000000 cycles:   19470147 heartbeat IPC: 2.00705 cumulative IPC: 2.00307 (Simulation time: 0 hr 1 min 7 sec) 
Heartbeat CPU  0 instructions:   40000000 cycles:   19971025 heartbeat IPC: 1.99649 cumulative IPC: 2.00290 (Simulation time: 0 hr 1 min 9 sec) 
Heartbeat CPU  0 instructions:   41000000 cycles:   20469029 heartbeat IPC: 2.00802 cumulative IPC: 2.00303 (Simulation time: 0 hr 1 min 11 sec) 
Heartbeat CPU  0 instructions:   42000000 cycles:   20970662 heartbeat IPC: 1.99349 cumulative IPC: 2.00280 (Simulation time: 0 hr 1 min 13 sec) 
Heartbeat CPU  0 instructions:   43000003 cycles:   21468241 heartbeat IPC: 2.00974 cumulative IPC: 2.00296 (Simulation time: 0 hr 1 min 14 sec) 
Heartbeat CPU  0 instructions:   44000000 cycles:   21969333 heartbeat IPC: 1.99564 cumulative IPC: 2.00279 (Simulation time: 0 hr 1 min 16 sec) 
Heartbeat CPU  0 instructions:   45000003 cycles:   22467582 heartbeat IPC: 2.00703 cumulative IPC: 2.00289 (Simulation time: 0 hr 1 min 18 sec) 
Heartbeat CPU  0 instructions:   46000003 cycles:   22967674 heartbeat IPC: 1.99963 cumulative IPC: 2.00282 (Simulation time: 0 hr 1 min 20 sec) 
Heartbeat CPU  0 instructions:   47000001 cycles:   23466708 heartbeat IPC: 2.00387 cumulative IPC: 2.00284 (Simulation time: 0 hr 1 min 21 sec) 
Heartbeat CPU  0 instructions:   48000000 cycles:   23966387 heartbeat IPC: 2.00128 cumulative IPC: 2.00280 (Simulation time: 0 hr 1 min 23 sec) 
Heartbeat CPU  0 instructions:   49000000 cycles:   24465775 heartbeat IPC: 2.00245 cumulative IPC: 2.00280 (Simulation time: 0 hr 1 min 25 sec) 
Heartbeat CPU  0 instructions:   50000000 cycles:   24964205 heartbeat IPC: 2.00630 cumulative IPC: 2.00287 (Simulation time: 0 hr 1 min 27 sec) 
Heartbeat CPU  0 instructions:   51000003 cycles:   25463965 heartbeat IPC: 2.00097 cumulative IPC: 2.00283 (Simulation time: 0 hr 1 min 28 sec) 
Heartbeat CPU  0 instructions:   52000000 cycles:   25961489 heartbeat IPC: 2.00995 cumulative IPC: 2.00297 (Simulation time: 0 hr 1 min 30 sec) 
Heartbeat CPU  0 instructions:   53000001 cycles:   26461872 heartbeat IPC: 1.99847 cumulative IPC: 2.00288 (Simulation time: 0 hr 1 min 32 sec) 
Heartbeat CPU  0 instructions:   54000002 cycles:   26959763 heartbeat IPC: 2.00847 cumulative IPC: 2.00299 (Simulation time: 0 hr 1 min 34 sec) 
Heartbeat CPU  0 instructions:   55000001 cycles:   27460372 heartbeat IPC: 1.99756 cumulative IPC: 2.00289 (Simulation time: 0 hr 1 min 35 sec) 
Heartbeat CPU  0 instructions:   56000000 cycles:   27957900 heartbeat IPC: 2.00994 cumulative IPC: 2.00301 (Simulation time: 0 hr 1 min 37 sec) 
Heartbeat CPU  0 instructions:   57000002 cycles:   28458933 heartbeat IPC: 1.99588 cumulative IPC: 2.00289 (Simulation time: 0 hr 1 min 39 sec) 
Heartbeat CPU  0 instructions:   58000001 cycles:   28955821 heartbeat IPC: 2.01252 cumulative IPC: 2.00305 (Simulation time: 0 hr 1 min 41 sec) 
Heartbeat CPU  0 instructions:   59000003 cycles:   29456606 heartbeat IPC: 1.99687 cumulative IPC: 2.00295 (Simulation time: 0 hr 1 min 42 sec) 
Heartbeat CPU  0 instructions:   60000000 cycles:   29954801 heartbeat IPC: 2.00724 cumulative IPC: 2.00302 (Simulation time: 0 hr 1 min 44 sec) 
Heartbeat CPU  0 instructions:   61000003 cycles:   30455132 heartbeat IPC: 1.99868 cumulative IPC: 2.00295 (Simulation time: 0 hr 1 min 46 sec) 
Heartbeat CPU  0 instructions:   62000001 cycles:   30954181 heartbeat IPC: 2.00381 cumulative IPC: 2.00296 (Simulation time: 0 hr 1 min 48 sec) 
Heartbeat CPU  0 instructions:   63000003 cycles:   31453766 heartbeat IPC: 2.00167 cumulative IPC: 2.00294 (Simulation time: 0 hr 1 min 49 sec) 
Heartbeat CPU  0 instructions:   64000000 cycles:   31953412 heartbeat IPC: 2.00141 cumulative IPC: 2.00292 (Simulation time: 0 hr 1 min 51 sec) 
Heartbeat CPU  0 instructions:   65000001 cycles:   32452275 heartbeat IPC: 2.00456 cumulative IPC: 2.00294 (Simulation time: 0 hr 1 min 53 sec) 
Heartbeat CPU  0 instructions:   66000000 cycles:   32952710 heartbeat IPC: 1.99826 cumulative IPC: 2.00287 (Simulation time: 0 hr 1 min 55 sec) 
Heartbeat CPU  0 instructions:   67000003 cycles:   33451029 heartbeat IPC: 2.00675 cumulative IPC: 2.00293 (Simulation time: 0 hr 1 min 56 sec) 
Heartbeat CPU  0 instructions:   68000000 cycles:   33952134 heartbeat IPC: 1.99558 cumulative IPC: 2.00282 (Simulation time: 0 hr 1 min 58 sec) 
Heartbeat CPU  0 instructions:   69000002 cycles:   34450849 heartbeat IPC: 2.00516 cumulative IPC: 2.00285 (Simulation time: 0 hr 2 min 0 sec) 
Heartbeat CPU  0 instructions:   70000003 cycles:   34951378 heartbeat IPC: 1.99789 cumulative IPC: 2.00278 (Simulation time: 0 hr 2 min 2 sec) 
Heartbeat CPU  0 instructions:   71000001 cycles:   35449023 heartbeat IPC: 2.00946 cumulative IPC: 2.00288 (Simulation time: 0 hr 2 min 3 sec) 
Heartbeat CPU  0 instructions:   72000000 cycles:   35950055 heartbeat IPC: 1.99588 cumulative IPC: 2.00278 (Simulation time: 0 hr 2 min 5 sec) 
Heartbeat CPU  0 instructions:   73000001 cycles:   36447078 heartbeat IPC: 2.01198 cumulative IPC: 2.00290 (Simulation time: 0 hr 2 min 7 sec) 
Heartbeat CPU  0 instructions:   74000002 cycles:   36947351 heartbeat IPC: 1.99891 cumulative IPC: 2.00285 (Simulation time: 0 hr 2 min 9 sec) 
Heartbeat CPU  0 instructions:   75000000 cycles:   37445018 heartbeat IPC: 2.00937 cumulative IPC: 2.00294 (Simulation time: 0 hr 2 min 10 sec) 
Heartbeat CPU  0 instructions:   76000000 cycles:   37944593 heartbeat IPC: 2.00170 cumulative IPC: 2.00292 (Simulation time: 0 hr 2 min 12 sec) 
Heartbeat CPU  0 instructions:   77000003 cycles:   38443043 heartbeat IPC: 2.00623 cumulative IPC: 2.00296 (Simulation time: 0 hr 2 min 14 sec) 
Heartbeat CPU  0 instructions:   78000000 cycles:   38941874 heartbeat IPC: 2.00468 cumulative IPC: 2.00299 (Simulation time: 0 hr 2 min 16 sec) 
Heartbeat CPU  0 instructions:   79000002 cycles:   39441002 heartbeat IPC: 2.00350 cumulative IPC: 2.00299 (Simulation time: 0 hr 2 min 17 sec) 
Heartbeat CPU  0 instructions:   80000000 cycles:   39939736 heartbeat IPC: 2.00507 cumulative IPC: 2.00302 (Simulation time: 0 hr 2 min 19 sec) 
Heartbeat CPU  0 instructions:   81000002 cycles:   40440068 heartbeat IPC: 1.99868 cumulative IPC: 2.00296 (Simulation time: 0 hr 2 min 21 sec) 
Heartbeat CPU  0 instructions:   82000002 cycles:   40938175 heartbeat IPC: 2.00760 cumulative IPC: 2.00302 (Simulation time: 0 hr 2 min 22 sec) 
Heartbeat CPU  0 instructions:   83000000 cycles:   41439211 heartbeat IPC: 1.99586 cumulative IPC: 2.00293 (Simulation time: 0 hr 2 min 24 sec) 
Heartbeat CPU  0 instructions:   84000000 cycles:   41937808 heartbeat IPC: 2.00563 cumulative IPC: 2.00297 (Simulation time: 0 hr 2 min 26 sec) 
Heartbeat CPU  0 instructions:   85000000 cycles:   42439087 heartbeat IPC: 1.99490 cumulative IPC: 2.00287 (Simulation time: 0 hr 2 min 28 sec) 
Heartbeat CPU  0 instructions:   86000003 cycles:   42936960 heartbeat IPC: 2.00855 cumulative IPC: 2.00294 (Simulation time: 0 hr 2 min 29 sec) 
Heartbeat CPU  0 instructions:   87000000 cycles:   43438354 heartbeat IPC: 1.99443 cumulative IPC: 2.00284 (Simulation time: 0 hr 2 min 31 sec) 
Heartbeat CPU  0 instructions:   88000000 cycles:   43935700 heartbeat IPC: 2.01067 cumulative IPC: 2.00293 (Simulation time: 0 hr 2 min 33 sec) 
Heartbeat CPU  0 instructions:   89000003 cycles:   44436647 heartbeat IPC: 1.99623 cumulative IPC: 2.00285 (Simulation time: 0 hr 2 min 35 sec) 
Heartbeat CPU  0 instructions:   90000000 cycles:   44934759 heartbeat IPC: 2.00757 cumulative IPC: 2.00290 (Simulation time: 0 hr 2 min 36 sec) 
Heartbeat CPU  0 instructions:   91000000 cycles:   45434313 heartbeat IPC: 2.00179 cumulative IPC: 2.00289 (Simulation time: 0 hr 2 min 38 sec) 
Heartbeat CPU  0 instructions:   92000000 cycles:   45932869 heartbeat IPC: 2.00579 cumulative IPC: 2.00292 (Simulation time: 0 hr 2 min 40 sec) 
Heartbeat CPU  0 instructions:   93000000 cycles:   46431939 heartbeat IPC: 2.00373 cumulative IPC: 2.00293 (Simulation time: 0 hr 2 min 42 sec) 
Heartbeat CPU  0 instructions:   94000000 cycles:   46931068 heartbeat IPC: 2.00349 cumulative IPC: 2.00294 (Simulation time: 0 hr 2 min 43 sec) 
Heartbeat CPU  0 instructions:   95000000 cycles:   47429222 heartbeat IPC: 2.00741 cumulative IPC: 2.00298 (Simulation time: 0 hr 2 min 45 sec) 
Heartbeat CPU  0 instructions:   96000000 cycles:   47929143 heartbeat IPC: 2.00032 cumulative IPC: 2.00296 (Simulation time: 0 hr 2 min 47 sec) 
Heartbeat CPU  0 instructions:   97000000 cycles:   48427146 heartbeat IPC: 2.00802 cumulative IPC: 2.00301 (Simulation time: 0 hr 2 min 49 sec) 
Heartbeat CPU  0 instructions:   98000001 cycles:   48927811 heartbeat IPC: 1.99735 cumulative IPC: 2.00295 (Simulation time: 0 hr 2 min 50 sec) 
Heartbeat CPU  0 instructions:   99000001 cycles:   49425583 heartbeat IPC: 2.00895 cumulative IPC: 2.00301 (Simulation time: 0 hr 2 min 52 sec) 
Heartbeat CPU  0 instructions:  100000000 cycles:   49925971 heartbeat IPC: 1.99845 cumulative IPC: 2.00297 (Simulation time: 0 hr 2 min 54 sec) 

Warmup complete CPU  0 instructions:  100000001 cycles:   49925972 (Simulation time: 0 hr 2 min 54 sec) 

Heartbeat CPU  0 instructions:  101000003 cycles:   50928924 heartbeat IPC: 0.99706 cumulative IPC: 0.99706 (Simulation time: 0 hr 2 min 56 sec) 
Heartbeat CPU  0 instructions:  102000001 cycles:   51883765 heartbeat IPC: 1.04729 cumulative IPC: 1.02156 (Simulation time: 0 hr 2 min 58 sec) 
Heartbeat CPU  0 instructions:  103000002 cycles:   52824051 heartbeat IPC: 1.06351 cumulative IPC: 1.03517 (Simulation time: 0 hr 3 min 0 sec) 
Heartbeat CPU  0 instructions:  104000000 cycles:   53784928 heartbeat IPC: 1.04071 cumulative IPC: 1.03655 (Simulation time: 0 hr 3 min 2 sec) 
Heartbeat CPU  0 instructions:  105000002 cycles:   54745916 heartbeat IPC: 1.04060 cumulative IPC: 1.03736 (Simulation time: 0 hr 3 min 4 sec) 
Heartbeat CPU  0 instructions:  106000003 cycles:   55703595 heartbeat IPC: 1.04419 cumulative IPC: 1.03849 (Simulation time: 0 hr 3 min 7 sec) 
Heartbeat CPU  0 instructions:  107000000 cycles:   56665648 heartbeat IPC: 1.03944 cumulative IPC: 1.03863 (Simulation time: 0 hr 3 min 9 sec) 
Heartbeat CPU  0 instructions:  108000000 cycles:   57607613 heartbeat IPC: 1.06161 cumulative IPC: 1.04144 (Simulation time: 0 hr 3 min 11 sec) 
Heartbeat CPU  0 instructions:  109000000 cycles:   58562093 heartbeat IPC: 1.04769 cumulative IPC: 1.04213 (Simulation time: 0 hr 3 min 13 sec) 
Heartbeat CPU  0 instructions:  110000001 cycles:   59521705 heartbeat IPC: 1.04209 cumulative IPC: 1.04213 (Simulation time: 0 hr 3 min 15 sec) 
Heartbeat CPU  0 instructions:  111000001 cycles:   60502602 heartbeat IPC: 1.01947 cumulative IPC: 1.04003 (Simulation time: 0 hr 3 min 17 sec) 
Heartbeat CPU  0 instructions:  112000000 cycles:   61466738 heartbeat IPC: 1.03720 cumulative IPC: 1.03979 (Simulation time: 0 hr 3 min 19 sec) 
Heartbeat CPU  0 instructions:  113000003 cycles:   62413362 heartbeat IPC: 1.05639 cumulative IPC: 1.04105 (Simulation time: 0 hr 3 min 21 sec) 
Heartbeat CPU  0 instructions:  114000001 cycles:   63364043 heartbeat IPC: 1.05188 cumulative IPC: 1.04182 (Simulation time: 0 hr 3 min 24 sec) 
Heartbeat CPU  0 instructions:  115000003 cycles:   64325436 heartbeat IPC: 1.04016 cumulative IPC: 1.04171 (Simulation time: 0 hr 3 min 26 sec) 
Heartbeat CPU  0 instructions:  116000000 cycles:   65277945 heartbeat IPC: 1.04986 cumulative IPC: 1.04221 (Simulation time: 0 hr 3 min 28 sec) 
Heartbeat CPU  0 instructions:  117000000 cycles:   66239404 heartbeat IPC: 1.04009 cumulative IPC: 1.04209 (Simulation time: 0 hr 3 min 30 sec) 
Heartbeat CPU  0 instructions:  118000003 cycles:   67195365 heartbeat IPC: 1.04607 cumulative IPC: 1.04231 (Simulation time: 0 hr 3 min 32 sec) 
Heartbeat CPU  0 instructions:  119000000 cycles:   68130357 heartbeat IPC: 1.06952 cumulative IPC: 1.04370 (Simulation time: 0 hr 3 min 34 sec) 
Heartbeat CPU  0 instructions:  120000000 cycles:   69093722 heartbeat IPC: 1.03803 cumulative IPC: 1.04342 (Simulation time: 0 hr 3 min 36 sec) 
Heartbeat CPU  0 instructions:  121000000 cycles:   70055314 heartbeat IPC: 1.03994 cumulative IPC: 1.04325 (Simulation time: 0 hr 3 min 38 sec) 
Heartbeat CPU  0 instructions:  122000000 cycles:   71023979 heartbeat IPC: 1.03235 cumulative IPC: 1.04275 (Simulation time: 0 hr 3 min 41 sec) 
Heartbeat CPU  0 instructions:  123000001 cycles:   71985358 heartbeat IPC: 1.04017 cumulative IPC: 1.04264 (Simulation time: 0 hr 3 min 43 sec) 
Heartbeat CPU  0 instructions:  124000000 cycles:   72922922 heartbeat IPC: 1.06659 cumulative IPC: 1.04362 (Simulation time: 0 hr 3 min 45 sec) 
Heartbeat CPU  0 instructions:  125000001 cycles:   73871781 heartbeat IPC: 1.05390 cumulative IPC: 1.04402 (Simulation time: 0 hr 3 min 47 sec) 
Heartbeat CPU  0 instructions:  126000002 cycles:   74837627 heartbeat IPC: 1.03536 cumulative IPC: 1.04369 (Simulation time: 0 hr 3 min 49 sec) 
Heartbeat CPU  0 instructions:  127000000 cycles:   75808688 heartbeat IPC: 1.02980 cumulative IPC: 1.04317 (Simulation time: 0 hr 3 min 51 sec) 
Heartbeat CPU  0 instructions:  128000000 cycles:   76756951 heartbeat IPC: 1.05456 cumulative IPC: 1.04357 (Simulation time: 0 hr 3 min 53 sec) 
Heartbeat CPU  0 instructions:  129000003 cycles:   77713466 heartbeat IPC: 1.04546 cumulative IPC: 1.04364 (Simulation time: 0 hr 3 min 55 sec) 
Heartbeat CPU  0 instructions:  130000000 cycles:   78645557 heartbeat IPC: 1.07285 cumulative IPC: 1.04458 (Simulation time: 0 hr 3 min 58 sec) 
Heartbeat CPU  0 instructions:  131000003 cycles:   79611517 heartbeat IPC: 1.03524 cumulative IPC: 1.04428 (Simulation time: 0 hr 4 min 0 sec) 
Heartbeat CPU  0 instructions:  132000000 cycles:   81006142 heartbeat IPC: 0.71704 cumulative IPC: 1.02960 (Simulation time: 0 hr 4 min 2 sec) 
Heartbeat CPU  0 instructions:  133000001 cycles:   82954002 heartbeat IPC: 0.51338 cumulative IPC: 0.99915 (Simulation time: 0 hr 4 min 4 sec) 
Heartbeat CPU  0 instructions:  134000003 cycles:   84195260 heartbeat IPC: 0.80564 cumulative IPC: 0.99214 (Simulation time: 0 hr 4 min 7 sec) 
Heartbeat CPU  0 instructions:  135000000 cycles:   85161344 heartbeat IPC: 1.03510 cumulative IPC: 0.99332 (Simulation time: 0 hr 4 min 9 sec) 
Heartbeat CPU  0 instructions:  136000000 cycles:   86149198 heartbeat IPC: 1.01230 cumulative IPC: 0.99384 (Simulation time: 0 hr 4 min 11 sec) 
Heartbeat CPU  0 instructions:  137000001 cycles:   87121520 heartbeat IPC: 1.02847 cumulative IPC: 0.99474 (Simulation time: 0 hr 4 min 13 sec) 
Heartbeat CPU  0 instructions:  138000003 cycles:   88106780 heartbeat IPC: 1.01496 cumulative IPC: 0.99526 (Simulation time: 0 hr 4 min 15 sec) 
Heartbeat CPU  0 instructions:  139000000 cycles:   89072291 heartbeat IPC: 1.03572 cumulative IPC: 0.99626 (Simulation time: 0 hr 4 min 18 sec) 
Heartbeat CPU  0 instructions:  140000000 cycles:   90061808 heartbeat IPC: 1.01059 cumulative IPC: 0.99662 (Simulation time: 0 hr 4 min 20 sec) 
Heartbeat CPU  0 instructions:  141000001 cycles:   91033696 heartbeat IPC: 1.02893 cumulative IPC: 0.99738 (Simulation time: 0 hr 4 min 22 sec) 
Heartbeat CPU  0 instructions:  142000003 cycles:   92005605 heartbeat IPC: 1.02890 cumulative IPC: 0.99811 (Simulation time: 0 hr 4 min 24 sec) 
Heartbeat CPU  0 instructions:  143000000 cycles:   92991088 heartbeat IPC: 1.01473 cumulative IPC: 0.99849 (Simulation time: 0 hr 4 min 26 sec) 
Heartbeat CPU  0 instructions:  144000000 cycles:   93952899 heartbeat IPC: 1.03971 cumulative IPC: 0.99939 (Simulation time: 0 hr 4 min 28 sec) 
Heartbeat CPU  0 instructions:  145000001 cycles:   94915216 heartbeat IPC: 1.03916 cumulative IPC: 1.00024 (Simulation time: 0 hr 4 min 31 sec) 
Heartbeat CPU  0 instructions:  146000002 cycles:   95873021 heartbeat IPC: 1.04405 cumulative IPC: 1.00115 (Simulation time: 0 hr 4 min 33 sec) 
Heartbeat CPU  0 instructions:  147000002 cycles:   96844862 heartbeat IPC: 1.02897 cumulative IPC: 1.00173 (Simulation time: 0 hr 4 min 35 sec) 
Heartbeat CPU  0 instructions:  148000000 cycles:   97817663 heartbeat IPC: 1.02796 cumulative IPC: 1.00226 (Simulation time: 0 hr 4 min 37 sec) 
Heartbeat CPU  0 instructions:  149000001 cycles:   98804179 heartbeat IPC: 1.01367 cumulative IPC: 1.00249 (Simulation time: 0 hr 4 min 39 sec) 
Heartbeat CPU  0 instructions:  150000002 cycles:   99775417 heartbeat IPC: 1.02961 cumulative IPC: 1.00302 (Simulation time: 0 hr 4 min 41 sec) 
Heartbeat CPU  0 instructions:  151000002 cycles:  100752394 heartbeat IPC: 1.02357 cumulative IPC: 1.00342 (Simulation time: 0 hr 4 min 44 sec) 
Heartbeat CPU  0 instructions:  152000000 cycles:  101724105 heartbeat IPC: 1.02911 cumulative IPC: 1.00390 (Simulation time: 0 hr 4 min 46 sec) 
Heartbeat CPU  0 instructions:  153000002 cycles:  102693337 heartbeat IPC: 1.03175 cumulative IPC: 1.00441 (Simulation time: 0 hr 4 min 48 sec) 
Heartbeat CPU  0 instructions:  154000002 cycles:  103670798 heartbeat IPC: 1.02306 cumulative IPC: 1.00475 (Simulation time: 0 hr 4 min 50 sec) 
Heartbeat CPU  0 instructions:  155000001 cycles:  104633384 heartbeat IPC: 1.03887 cumulative IPC: 1.00535 (Simulation time: 0 hr 4 min 52 sec) 
Heartbeat CPU  0 instructions:  156000000 cycles:  105599479 heartbeat IPC: 1.03509 cumulative IPC: 1.00586 (Simulation time: 0 hr 4 min 54 sec) 
Heartbeat CPU  0 instructions:  157000002 cycles:  106551021 heartbeat IPC: 1.05093 cumulative IPC: 1.00662 (Simulation time: 0 hr 4 min 57 sec) 
Heartbeat CPU  0 instructions:  158000000 cycles:  107509777 heartbeat IPC: 1.04302 cumulative IPC: 1.00723 (Simulation time: 0 hr 4 min 59 sec) 
Heartbeat CPU  0 instructions:  159000003 cycles:  108464085 heartbeat IPC: 1.04788 cumulative IPC: 1.00789 (Simulation time: 0 hr 5 min 1 sec) 
Heartbeat CPU  0 instructions:  160000000 cycles:  109433714 heartbeat IPC: 1.03132 cumulative IPC: 1.00827 (Simulation time: 0 hr 5 min 3 sec) 
Heartbeat CPU  0 instructions:  161000000 cycles:  110398979 heartbeat IPC: 1.03598 cumulative IPC: 1.00871 (Simulation time: 0 hr 5 min 5 sec) 
Heartbeat CPU  0 instructions:  162000001 cycles:  111359030 heartbeat IPC: 1.04161 cumulative IPC: 1.00923 (Simulation time: 0 hr 5 min 7 sec) 
Heartbeat CPU  0 instructions:  163000001 cycles:  112321834 heartbeat IPC: 1.03863 cumulative IPC: 1.00968 (Simulation time: 0 hr 5 min 10 sec) 
Heartbeat CPU  0 instructions:  164000000 cycles:  113283061 heartbeat IPC: 1.04034 cumulative IPC: 1.01015 (Simulation time: 0 hr 5 min 12 sec) 
Heartbeat CPU  0 instructions:  165000000 cycles:  114247117 heartbeat IPC: 1.03728 cumulative IPC: 1.01055 (Simulation time: 0 hr 5 min 14 sec) 
Heartbeat CPU  0 instructions:  166000001 cycles:  115208360 heartbeat IPC: 1.04032 cumulative IPC: 1.01099 (Simulation time: 0 hr 5 min 16 sec) 
Heartbeat CPU  0 instructions:  167000003 cycles:  116172736 heartbeat IPC: 1.03694 cumulative IPC: 1.01137 (Simulation time: 0 hr 5 min 18 sec) 
Heartbeat CPU  0 instructions:  168000000 cycles:  117132640 heartbeat IPC: 1.04177 cumulative IPC: 1.01180 (Simulation time: 0 hr 5 min 20 sec) 
Heartbeat CPU  0 instructions:  169000001 cycles:  118087999 heartbeat IPC: 1.04673 cumulative IPC: 1.01229 (Simulation time: 0 hr 5 min 23 sec) 
Heartbeat CPU  0 instructions:  170000001 cycles:  119042169 heartbeat IPC: 1.04803 cumulative IPC: 1.01279 (Simulation time: 0 hr 5 min 25 sec) 
Heartbeat CPU  0 instructions:  171000001 cycles:  119996122 heartbeat IPC: 1.04827 cumulative IPC: 1.01327 (Simulation time: 0 hr 5 min 27 sec) 
Heartbeat CPU  0 instructions:  172000000 cycles:  120951401 heartbeat IPC: 1.04681 cumulative IPC: 1.01372 (Simulation time: 0 hr 5 min 29 sec) 
Heartbeat CPU  0 instructions:  173000000 cycles:  121923361 heartbeat IPC: 1.02885 cumulative IPC: 1.01393 (Simulation time: 0 hr 5 min 31 sec) 
Heartbeat CPU  0 instructions:  174000001 cycles:  122887532 heartbeat IPC: 1.03716 cumulative IPC: 1.01423 (Simulation time: 0 hr 5 min 33 sec) 
Heartbeat CPU  0 instructions:  175000002 cycles:  123849782 heartbeat IPC: 1.03923 cumulative IPC: 1.01456 (Simulation time: 0 hr 5 min 36 sec) 
Heartbeat CPU  0 instructions:  176000000 cycles:  124814681 heartbeat IPC: 1.03638 cumulative IPC: 1.01484 (Simulation time: 0 hr 5 min 38 sec) 
Heartbeat CPU  0 instructions:  177000001 cycles:  125773644 heartbeat IPC: 1.04279 cumulative IPC: 1.01519 (Simulation time: 0 hr 5 min 40 sec) 
Heartbeat CPU  0 instructions:  178000001 cycles:  126735674 heartbeat IPC: 1.03947 cumulative IPC: 1.01550 (Simulation time: 0 hr 5 min 42 sec) 
Heartbeat CPU  0 instructions:  179000002 cycles:  127693905 heartbeat IPC: 1.04359 cumulative IPC: 1.01584 (Simulation time: 0 hr 5 min 44 sec) 
Heartbeat CPU  0 instructions:  180000000 cycles:  128657415 heartbeat IPC: 1.03787 cumulative IPC: 1.01611 (Simulation time: 0 hr 5 min 47 sec) 
Heartbeat CPU  0 instructions:  181000000 cycles:  129612777 heartbeat IPC: 1.04672 cumulative IPC: 1.01648 (Simulation time: 0 hr 5 min 49 sec) 
Heartbeat CPU  0 instructions:  182000002 cycles:  130562100 heartbeat IPC: 1.05338 cumulative IPC: 1.01691 (Simulation time: 0 hr 5 min 51 sec) 
Heartbeat CPU  0 instructions:  183000002 cycles:  131514062 heartbeat IPC: 1.05046 cumulative IPC: 1.01731 (Simulation time: 0 hr 5 min 53 sec) 
Heartbeat CPU  0 instructions:  184000000 cycles:  132468539 heartbeat IPC: 1.04769 cumulative IPC: 1.01766 (Simulation time: 0 hr 5 min 55 sec) 
Heartbeat CPU  0 instructions:  185000003 cycles:  133430523 heartbeat IPC: 1.03952 cumulative IPC: 1.01791 (Simulation time: 0 hr 5 min 57 sec) 
Heartbeat CPU  0 instructions:  186000000 cycles:  134393146 heartbeat IPC: 1.03883 cumulative IPC: 1.01815 (Simulation time: 0 hr 6 min 0 sec) 
Heartbeat CPU  0 instructions:  187000000 cycles:  135354154 heartbeat IPC: 1.04057 cumulative IPC: 1.01840 (Simulation time: 0 hr 6 min 2 sec) 
Heartbeat CPU  0 instructions:  188000000 cycles:  136314542 heartbeat IPC: 1.04125 cumulative IPC: 1.01865 (Simulation time: 0 hr 6 min 4 sec) 
Heartbeat CPU  0 instructions:  189000003 cycles:  137281765 heartbeat IPC: 1.03389 cumulative IPC: 1.01882 (Simulation time: 0 hr 6 min 6 sec) 
Heartbeat CPU  0 instructions:  190000000 cycles:  138247178 heartbeat IPC: 1.03582 cumulative IPC: 1.01901 (Simulation time: 0 hr 6 min 8 sec) 
Heartbeat CPU  0 instructions:  191000000 cycles:  139214241 heartbeat IPC: 1.03406 cumulative IPC: 1.01917 (Simulation time: 0 hr 6 min 10 sec) 
Heartbeat CPU  0 instructions:  192000000 cycles:  140178777 heartbeat IPC: 1.03677 cumulative IPC: 1.01936 (Simulation time: 0 hr 6 min 13 sec) 
Heartbeat CPU  0 instructions:  193000000 cycles:  141142479 heartbeat IPC: 1.03767 cumulative IPC: 1.01955 (Simulation time: 0 hr 6 min 15 sec) 
Heartbeat CPU  0 instructions:  194000000 cycles:  142096800 heartbeat IPC: 1.04787 cumulative IPC: 1.01985 (Simulation time: 0 hr 6 min 17 sec) 
Heartbeat CPU  0 instructions:  195000003 cycles:  144005018 heartbeat IPC: 0.52405 cumulative IPC: 1.00979 (Simulation time: 0 hr 6 min 19 sec) 
Heartbeat CPU  0 instructions:  196000000 cycles:  145197191 heartbeat IPC: 0.83880 cumulative IPC: 1.00765 (Simulation time: 0 hr 6 min 22 sec) 
Heartbeat CPU  0 instructions:  197000000 cycles:  146307267 heartbeat IPC: 0.90084 cumulative IPC: 1.00642 (Simulation time: 0 hr 6 min 24 sec) 
Heartbeat CPU  0 instructions:  198000000 cycles:  147357879 heartbeat IPC: 0.95183 cumulative IPC: 1.00583 (Simulation time: 0 hr 6 min 26 sec) 
Heartbeat CPU  0 instructions:  199000000 cycles:  148443798 heartbeat IPC: 0.92088 cumulative IPC: 1.00489 (Simulation time: 0 hr 6 min 28 sec) 
Heartbeat CPU  0 instructions:  200000000 cycles:  149569030 heartbeat IPC: 0.88871 cumulative IPC: 1.00358 (Simulation time: 0 hr 6 min 30 sec) 
Heartbeat CPU  0 instructions:  201000002 cycles:  150652219 heartbeat IPC: 0.92320 cumulative IPC: 1.00272 (Simulation time: 0 hr 6 min 32 sec) 
Heartbeat CPU  0 instructions:  202000002 cycles:  151722354 heartbeat IPC: 0.93446 cumulative IPC: 1.00200 (Simulation time: 0 hr 6 min 34 sec) 
Heartbeat CPU  0 instructions:  203000003 cycles:  152784861 heartbeat IPC: 0.94117 cumulative IPC: 1.00137 (Simulation time: 0 hr 6 min 36 sec) 
Heartbeat CPU  0 instructions:  204000000 cycles:  154566855 heartbeat IPC: 0.56117 cumulative IPC: 0.99388 (Simulation time: 0 hr 6 min 39 sec) 
Heartbeat CPU  0 instructions:  205000001 cycles:  155701922 heartbeat IPC: 0.88101 cumulative IPC: 0.99266 (Simulation time: 0 hr 6 min 41 sec) 
Heartbeat CPU  0 instructions:  206000003 cycles:  156667655 heartbeat IPC: 1.03548 cumulative IPC: 0.99305 (Simulation time: 0 hr 6 min 43 sec) 
Heartbeat CPU  0 instructions:  207000003 cycles:  157735038 heartbeat IPC: 0.93687 cumulative IPC: 0.99250 (Simulation time: 0 hr 6 min 45 sec) 
Heartbeat CPU  0 instructions:  208000000 cycles:  158793819 heartbeat IPC: 0.94448 cumulative IPC: 0.99203 (Simulation time: 0 hr 6 min 47 sec) 
Heartbeat CPU  0 instructions:  209000000 cycles:  159836147 heartbeat IPC: 0.95939 cumulative IPC: 0.99172 (Simulation time: 0 hr 6 min 49 sec) 
Heartbeat CPU  0 instructions:  210000003 cycles:  160869032 heartbeat IPC: 0.96816 cumulative IPC: 0.99150 (Simulation time: 0 hr 6 min 51 sec) 
Heartbeat CPU  0 instructions:  211000002 cycles:  161873293 heartbeat IPC: 0.99576 cumulative IPC: 0.99154 (Simulation time: 0 hr 6 min 53 sec) 
Heartbeat CPU  0 instructions:  212000000 cycles:  162924166 heartbeat IPC: 0.95159 cumulative IPC: 0.99117 (Simulation time: 0 hr 6 min 55 sec) 
Heartbeat CPU  0 instructions:  213000001 cycles:  164725337 heartbeat IPC: 0.55519 cumulative IPC: 0.98433 (Simulation time: 0 hr 6 min 58 sec) 
Heartbeat CPU  0 instructions:  214000001 cycles:  165880619 heartbeat IPC: 0.86559 cumulative IPC: 0.98314 (Simulation time: 0 hr 7 min 0 sec) 
Heartbeat CPU  0 instructions:  215000002 cycles:  167076382 heartbeat IPC: 0.83629 cumulative IPC: 0.98164 (Simulation time: 0 hr 7 min 2 sec) 
Heartbeat CPU  0 instructions:  216000000 cycles:  168280951 heartbeat IPC: 0.83017 cumulative IPC: 0.98010 (Simulation time: 0 hr 7 min 4 sec) 
Heartbeat CPU  0 instructions:  217000003 cycles:  169498766 heartbeat IPC: 0.82115 cumulative IPC: 0.97848 (Simulation time: 0 hr 7 min 6 sec) 
Heartbeat CPU  0 instructions:  218000003 cycles:  170690693 heartbeat IPC: 0.83898 cumulative IPC: 0.97711 (Simulation time: 0 hr 7 min 8 sec) 
Heartbeat CPU  0 instructions:  219000003 cycles:  171864883 heartbeat IPC: 0.85165 cumulative IPC: 0.97590 (Simulation time: 0 hr 7 min 11 sec) 
Heartbeat CPU  0 instructions:  220000000 cycles:  173057799 heartbeat IPC: 0.83828 cumulative IPC: 0.97457 (Simulation time: 0 hr 7 min 13 sec) 
Heartbeat CPU  0 instructions:  221000003 cycles:  174526058 heartbeat IPC: 0.68108 cumulative IPC: 0.97111 (Simulation time: 0 hr 7 min 15 sec) 
Heartbeat CPU  0 instructions:  222000002 cycles:  176147188 heartbeat IPC: 0.61685 cumulative IPC: 0.96656 (Simulation time: 0 hr 7 min 18 sec) 
Heartbeat CPU  0 instructions:  223000002 cycles:  177540722 heartbeat IPC: 0.71760 cumulative IPC: 0.96384 (Simulation time: 0 hr 7 min 20 sec) 
Heartbeat CPU  0 instructions:  224000000 cycles:  178949920 heartbeat IPC: 0.70962 cumulative IPC: 0.96106 (Simulation time: 0 hr 7 min 23 sec) 
Heartbeat CPU  0 instructions:  225000000 cycles:  180363684 heartbeat IPC: 0.70733 cumulative IPC: 0.95831 (Simulation time: 0 hr 7 min 26 sec) 
Heartbeat CPU  0 instructions:  226000003 cycles:  181758014 heartbeat IPC: 0.71719 cumulative IPC: 0.95576 (Simulation time: 0 hr 7 min 28 sec) 
Heartbeat CPU  0 instructions:  227000001 cycles:  183165912 heartbeat IPC: 0.71028 cumulative IPC: 0.95317 (Simulation time: 0 hr 7 min 31 sec) 
Heartbeat CPU  0 instructions:  228000000 cycles:  184566723 heartbeat IPC: 0.71387 cumulative IPC: 0.95068 (Simulation time: 0 hr 7 min 33 sec) 
Heartbeat CPU  0 instructions:  229000000 cycles:  185952850 heartbeat IPC: 0.72143 cumulative IPC: 0.94834 (Simulation time: 0 hr 7 min 36 sec) 
Heartbeat CPU  0 instructions:  230000000 cycles:  187376986 heartbeat IPC: 0.70218 cumulative IPC: 0.94579 (Simulation time: 0 hr 7 min 38 sec) 
Heartbeat CPU  0 instructions:  231000000 cycles:  188782455 heartbeat IPC: 0.71151 cumulative IPC: 0.94342 (Simulation time: 0 hr 7 min 41 sec) 
Heartbeat CPU  0 instructions:  232000000 cycles:  190197812 heartbeat IPC: 0.70654 cumulative IPC: 0.94103 (Simulation time: 0 hr 7 min 43 sec) 
Heartbeat CPU  0 instructions:  233000000 cycles:  191597706 heartbeat IPC: 0.71434 cumulative IPC: 0.93879 (Simulation time: 0 hr 7 min 46 sec) 
Heartbeat CPU  0 instructions:  234000000 cycles:  193028149 heartbeat IPC: 0.69908 cumulative IPC: 0.93639 (Simulation time: 0 hr 7 min 48 sec) 
Heartbeat CPU  0 instructions:  235000003 cycles:  194433501 heartbeat IPC: 0.71157 cumulative IPC: 0.93421 (Simulation time: 0 hr 7 min 51 sec) 
Heartbeat CPU  0 instructions:  236000000 cycles:  195837407 heartbeat IPC: 0.71230 cumulative IPC: 0.93207 (Simulation time: 0 hr 7 min 53 sec) 
Heartbeat CPU  0 instructions:  237000000 cycles:  197251759 heartbeat IPC: 0.70704 cumulative IPC: 0.92991 (Simulation time: 0 hr 7 min 56 sec) 
Heartbeat CPU  0 instructions:  238000002 cycles:  198668702 heartbeat IPC: 0.70575 cumulative IPC: 0.92778 (Simulation time: 0 hr 7 min 58 sec) 
Heartbeat CPU  0 instructions:  239000000 cycles:  200066988 heartbeat IPC: 0.71516 cumulative IPC: 0.92580 (Simulation time: 0 hr 8 min 1 sec) 
Heartbeat CPU  0 instructions:  240000000 cycles:  201478852 heartbeat IPC: 0.70828 cumulative IPC: 0.92377 (Simulation time: 0 hr 8 min 3 sec) 
Heartbeat CPU  0 instructions:  241000002 cycles:  202881340 heartbeat IPC: 0.71302 cumulative IPC: 0.92184 (Simulation time: 0 hr 8 min 6 sec) 
Heartbeat CPU  0 instructions:  242000002 cycles:  204298907 heartbeat IPC: 0.70543 cumulative IPC: 0.91985 (Simulation time: 0 hr 8 min 9 sec) 
Heartbeat CPU  0 instructions:  243000001 cycles:  205699800 heartbeat IPC: 0.71383 cumulative IPC: 0.91800 (Simulation time: 0 hr 8 min 11 sec) 
Heartbeat CPU  0 instructions:  244000000 cycles:  207108764 heartbeat IPC: 0.70974 cumulative IPC: 0.91613 (Simulation time: 0 hr 8 min 14 sec) 
Heartbeat CPU  0 instructions:  245000002 cycles:  208516127 heartbeat IPC: 0.71055 cumulative IPC: 0.91431 (Simulation time: 0 hr 8 min 16 sec) 
Heartbeat CPU  0 instructions:  246000003 cycles:  209938716 heartbeat IPC: 0.70294 cumulative IPC: 0.91243 (Simulation time: 0 hr 8 min 19 sec) 
Heartbeat CPU  0 instructions:  247000002 cycles:  211341446 heartbeat IPC: 0.71289 cumulative IPC: 0.91069 (Simulation time: 0 hr 8 min 21 sec) 
Heartbeat CPU  0 instructions:  248000000 cycles:  212745185 heartbeat IPC: 0.71238 cumulative IPC: 0.90898 (Simulation time: 0 hr 8 min 24 sec) 
Heartbeat CPU  0 instructions:  249000000 cycles:  214153234 heartbeat IPC: 0.71020 cumulative IPC: 0.90728 (Simulation time: 0 hr 8 min 26 sec) 
Heartbeat CPU  0 instructions:  250000000 cycles:  215580798 heartbeat IPC: 0.70049 cumulative IPC: 0.90550 (Simulation time: 0 hr 8 min 29 sec) 
Heartbeat CPU  0 instructions:  251000002 cycles:  216982856 heartbeat IPC: 0.71324 cumulative IPC: 0.90388 (Simulation time: 0 hr 8 min 31 sec) 
Heartbeat CPU  0 instructions:  252000000 cycles:  218401286 heartbeat IPC: 0.70500 cumulative IPC: 0.90221 (Simulation time: 0 hr 8 min 34 sec) 
Heartbeat CPU  0 instructions:  253000001 cycles:  219806947 heartbeat IPC: 0.71141 cumulative IPC: 0.90063 (Simulation time: 0 hr 8 min 36 sec) 
Heartbeat CPU  0 instructions:  254000002 cycles:  221222799 heartbeat IPC: 0.70629 cumulative IPC: 0.89902 (Simulation time: 0 hr 8 min 39 sec) 
Heartbeat CPU  0 instructions:  255000003 cycles:  222641088 heartbeat IPC: 0.70508 cumulative IPC: 0.89743 (Simulation time: 0 hr 8 min 41 sec) 
Heartbeat CPU  0 instructions:  256000000 cycles:  224033334 heartbeat IPC: 0.71826 cumulative IPC: 0.89600 (Simulation time: 0 hr 8 min 44 sec) 
Heartbeat CPU  0 instructions:  257000001 cycles:  225439161 heartbeat IPC: 0.71133 cumulative IPC: 0.89452 (Simulation time: 0 hr 8 min 46 sec) 
Heartbeat CPU  0 instructions:  258000001 cycles:  226840315 heartbeat IPC: 0.71370 cumulative IPC: 0.89309 (Simulation time: 0 hr 8 min 49 sec) 
Heartbeat CPU  0 instructions:  259000000 cycles:  228432852 heartbeat IPC: 0.62793 cumulative IPC: 0.89072 (Simulation time: 0 hr 8 min 51 sec) 
Heartbeat CPU  0 instructions:  260000000 cycles:  229472225 heartbeat IPC: 0.96212 cumulative IPC: 0.89114 (Simulation time: 0 hr 8 min 54 sec) 
Heartbeat CPU  0 instructions:  261000000 cycles:  230494510 heartbeat IPC: 0.97820 cumulative IPC: 0.89163 (Simulation time: 0 hr 8 min 56 sec) 
Heartbeat CPU  0 instructions:  262000000 cycles:  231515856 heartbeat IPC: 0.97910 cumulative IPC: 0.89212 (Simulation time: 0 hr 8 min 58 sec) 
Heartbeat CPU  0 instructions:  263000001 cycles:  232531211 heartbeat IPC: 0.98488 cumulative IPC: 0.89264 (Simulation time: 0 hr 9 min 0 sec) 
Heartbeat CPU  0 instructions:  264000000 cycles:  233548994 heartbeat IPC: 0.98253 cumulative IPC: 0.89313 (Simulation time: 0 hr 9 min 2 sec) 
Heartbeat CPU  0 instructions:  265000001 cycles:  234561542 heartbeat IPC: 0.98761 cumulative IPC: 0.89365 (Simulation time: 0 hr 9 min 5 sec) 
Heartbeat CPU  0 instructions:  266000001 cycles:  235579023 heartbeat IPC: 0.98282 cumulative IPC: 0.89414 (Simulation time: 0 hr 9 min 7 sec) 
Heartbeat CPU  0 instructions:  267000002 cycles:  236608375 heartbeat IPC: 0.97149 cumulative IPC: 0.89457 (Simulation time: 0 hr 9 min 9 sec) 
Heartbeat CPU  0 instructions:  268000000 cycles:  237668797 heartbeat IPC: 0.94302 cumulative IPC: 0.89484 (Simulation time: 0 hr 9 min 11 sec) 
Heartbeat CPU  0 instructions:  269000001 cycles:  238629838 heartbeat IPC: 1.04054 cumulative IPC: 0.89558 (Simulation time: 0 hr 9 min 13 sec) 
Heartbeat CPU  0 instructions:  270000000 cycles:  239623345 heartbeat IPC: 1.00653 cumulative IPC: 0.89616 (Simulation time: 0 hr 9 min 15 sec) 
Heartbeat CPU  0 instructions:  271000002 cycles:  240635712 heartbeat IPC: 0.98779 cumulative IPC: 0.89665 (Simulation time: 0 hr 9 min 17 sec) 
Heartbeat CPU  0 instructions:  272000000 cycles:  241634585 heartbeat IPC: 1.00113 cumulative IPC: 0.89719 (Simulation time: 0 hr 9 min 20 sec) 
Heartbeat CPU  0 instructions:  273000003 cycles:  242623946 heartbeat IPC: 1.01076 cumulative IPC: 0.89778 (Simulation time: 0 hr 9 min 22 sec) 
Heartbeat CPU  0 instructions:  274000002 cycles:  243602947 heartbeat IPC: 1.02145 cumulative IPC: 0.89840 (Simulation time: 0 hr 9 min 24 sec) 
Heartbeat CPU  0 instructions:  275000000 cycles:  244594006 heartbeat IPC: 1.00902 cumulative IPC: 0.89897 (Simulation time: 0 hr 9 min 26 sec) 
Heartbeat CPU  0 instructions:  276000000 cycles:  245591364 heartbeat IPC: 1.00265 cumulative IPC: 0.89949 (Simulation time: 0 hr 9 min 28 sec) 
Heartbeat CPU  0 instructions:  277000001 cycles:  246575823 heartbeat IPC: 1.01579 cumulative IPC: 0.90008 (Simulation time: 0 hr 9 min 30 sec) 
Heartbeat CPU  0 instructions:  278000001 cycles:  247451528 heartbeat IPC: 1.14194 cumulative IPC: 0.90115 (Simulation time: 0 hr 9 min 32 sec) 
Heartbeat CPU  0 instructions:  279000003 cycles:  248262344 heartbeat IPC: 1.23333 cumulative IPC: 0.90251 (Simulation time: 0 hr 9 min 34 sec) 
Heartbeat CPU  0 instructions:  280000000 cycles:  249270962 heartbeat IPC: 0.99145 cumulative IPC: 0.90296 (Simulation time: 0 hr 9 min 37 sec) 
Heartbeat CPU  0 instructions:  281000000 cycles:  250256643 heartbeat IPC: 1.01453 cumulative IPC: 0.90351 (Simulation time: 0 hr 9 min 39 sec) 
Heartbeat CPU  0 instructions:  282000002 cycles:  251234137 heartbeat IPC: 1.02303 cumulative IPC: 0.90409 (Simulation time: 0 hr 9 min 41 sec) 
Heartbeat CPU  0 instructions:  283000003 cycles:  252223675 heartbeat IPC: 1.01057 cumulative IPC: 0.90461 (Simulation time: 0 hr 9 min 43 sec) 
Heartbeat CPU  0 instructions:  284000000 cycles:  253197840 heartbeat IPC: 1.02652 cumulative IPC: 0.90519 (Simulation time: 0 hr 9 min 45 sec) 
Heartbeat CPU  0 instructions:  285000001 cycles:  254190455 heartbeat IPC: 1.00744 cumulative IPC: 0.90569 (Simulation time: 0 hr 9 min 47 sec) 
Heartbeat CPU  0 instructions:  286000001 cycles:  255177896 heartbeat IPC: 1.01272 cumulative IPC: 0.90620 (Simulation time: 0 hr 9 min 50 sec) 
Heartbeat CPU  0 instructions:  287000003 cycles:  256172546 heartbeat IPC: 1.00538 cumulative IPC: 0.90668 (Simulation time: 0 hr 9 min 52 sec) 
Heartbeat CPU  0 instructions:  288000000 cycles:  257147751 heartbeat IPC: 1.02542 cumulative IPC: 0.90724 (Simulation time: 0 hr 9 min 54 sec) 
Heartbeat CPU  0 instructions:  289000000 cycles:  257961619 heartbeat IPC: 1.22870 cumulative IPC: 0.90850 (Simulation time: 0 hr 9 min 56 sec) 
Heartbeat CPU  0 instructions:  290000003 cycles:  258902564 heartbeat IPC: 1.06276 cumulative IPC: 0.90919 (Simulation time: 0 hr 9 min 58 sec) 
Heartbeat CPU  0 instructions:  291000002 cycles:  259870937 heartbeat IPC: 1.03266 cumulative IPC: 0.90976 (Simulation time: 0 hr 10 min 0 sec) 
Heartbeat CPU  0 instructions:  292000000 cycles:  260843661 heartbeat IPC: 1.02804 cumulative IPC: 0.91031 (Simulation time: 0 hr 10 min 2 sec) 
Heartbeat CPU  0 instructions:  293000003 cycles:  261826323 heartbeat IPC: 1.01765 cumulative IPC: 0.91081 (Simulation time: 0 hr 10 min 4 sec) 
Heartbeat CPU  0 instructions:  294000000 cycles:  262814205 heartbeat IPC: 1.01226 cumulative IPC: 0.91128 (Simulation time: 0 hr 10 min 7 sec) 
Heartbeat CPU  0 instructions:  295000000 cycles:  263794586 heartbeat IPC: 1.02001 cumulative IPC: 0.91177 (Simulation time: 0 hr 10 min 9 sec) 
Heartbeat CPU  0 instructions:  296000000 cycles:  264788102 heartbeat IPC: 1.00653 cumulative IPC: 0.91221 (Simulation time: 0 hr 10 min 11 sec) 
Heartbeat CPU  0 instructions:  297000000 cycles:  265790025 heartbeat IPC: 0.99808 cumulative IPC: 0.91261 (Simulation time: 0 hr 10 min 13 sec) 
Heartbeat CPU  0 instructions:  298000000 cycles:  266792394 heartbeat IPC: 0.99764 cumulative IPC: 0.91300 (Simulation time: 0 hr 10 min 15 sec) 
Heartbeat CPU  0 instructions:  299000002 cycles:  267648037 heartbeat IPC: 1.16871 cumulative IPC: 0.91401 (Simulation time: 0 hr 10 min 17 sec) 
Heartbeat CPU  0 instructions:  300000000 cycles:  268461555 heartbeat IPC: 1.22923 cumulative IPC: 0.91518 (Simulation time: 0 hr 10 min 19 sec) 
Heartbeat CPU  0 instructions:  301000003 cycles:  269493391 heartbeat IPC: 0.96915 cumulative IPC: 0.91544 (Simulation time: 0 hr 10 min 21 sec) 
Heartbeat CPU  0 instructions:  302000002 cycles:  270477698 heartbeat IPC: 1.01594 cumulative IPC: 0.91588 (Simulation time: 0 hr 10 min 24 sec) 
Heartbeat CPU  0 instructions:  303000000 cycles:  271448988 heartbeat IPC: 1.02956 cumulative IPC: 0.91638 (Simulation time: 0 hr 10 min 26 sec) 
Heartbeat CPU  0 instructions:  304000000 cycles:  272441242 heartbeat IPC: 1.00781 cumulative IPC: 0.91679 (Simulation time: 0 hr 10 min 28 sec) 
Heartbeat CPU  0 instructions:  305000001 cycles:  273429361 heartbeat IPC: 1.01202 cumulative IPC: 0.91721 (Simulation time: 0 hr 10 min 30 sec) 
Heartbeat CPU  0 instructions:  306000000 cycles:  274419930 heartbeat IPC: 1.00952 cumulative IPC: 0.91762 (Simulation time: 0 hr 10 min 32 sec) 
Heartbeat CPU  0 instructions:  307000003 cycles:  275415668 heartbeat IPC: 1.00428 cumulative IPC: 0.91800 (Simulation time: 0 hr 10 min 34 sec) 
Heartbeat CPU  0 instructions:  308000000 cycles:  276408726 heartbeat IPC: 1.00699 cumulative IPC: 0.91839 (Simulation time: 0 hr 10 min 36 sec) 
Heartbeat CPU  0 instructions:  309000000 cycles:  277350123 heartbeat IPC: 1.06225 cumulative IPC: 0.91899 (Simulation time: 0 hr 10 min 39 sec) 
Heartbeat CPU  0 instructions:  310000001 cycles:  278163748 heartbeat IPC: 1.22907 cumulative IPC: 0.92009 (Simulation time: 0 hr 10 min 41 sec) 
Heartbeat CPU  0 instructions:  311000000 cycles:  279159281 heartbeat IPC: 1.00449 cumulative IPC: 0.92046 (Simulation time: 0 hr 10 min 43 sec) 
Heartbeat CPU  0 instructions:  312000000 cycles:  280150729 heartbeat IPC: 1.00863 cumulative IPC: 0.92084 (Simulation time: 0 hr 10 min 45 sec) 
Heartbeat CPU  0 instructions:  313000000 cycles:  281136316 heartbeat IPC: 1.01462 cumulative IPC: 0.92124 (Simulation time: 0 hr 10 min 47 sec) 
Heartbeat CPU  0 instructions:  314000003 cycles:  282137095 heartbeat IPC: 0.99922 cumulative IPC: 0.92158 (Simulation time: 0 hr 10 min 49 sec) 
Heartbeat CPU  0 instructions:  315000000 cycles:  283133099 heartbeat IPC: 1.00401 cumulative IPC: 0.92193 (Simulation time: 0 hr 10 min 51 sec) 
Heartbeat CPU  0 instructions:  316000000 cycles:  284120603 heartbeat IPC: 1.01265 cumulative IPC: 0.92231 (Simulation time: 0 hr 10 min 54 sec) 
Heartbeat CPU  0 instructions:  317000000 cycles:  285119457 heartbeat IPC: 1.00115 cumulative IPC: 0.92264 (Simulation time: 0 hr 10 min 56 sec) 
Heartbeat CPU  0 instructions:  318000003 cycles:  286113874 heartbeat IPC: 1.00562 cumulative IPC: 0.92299 (Simulation time: 0 hr 10 min 58 sec) 
Heartbeat CPU  0 instructions:  319000000 cycles:  287112332 heartbeat IPC: 1.00154 cumulative IPC: 0.92332 (Simulation time: 0 hr 11 min 0 sec) 
Heartbeat CPU  0 instructions:  320000000 cycles:  287945653 heartbeat IPC: 1.20002 cumulative IPC: 0.92429 (Simulation time: 0 hr 11 min 2 sec) 
Heartbeat CPU  0 instructions:  321000003 cycles:  288826434 heartbeat IPC: 1.13536 cumulative IPC: 0.92507 (Simulation time: 0 hr 11 min 4 sec) 
Heartbeat CPU  0 instructions:  322000002 cycles:  289845328 heartbeat IPC: 0.98146 cumulative IPC: 0.92531 (Simulation time: 0 hr 11 min 6 sec) 
Heartbeat CPU  0 instructions:  323000000 cycles:  290839157 heartbeat IPC: 1.00621 cumulative IPC: 0.92564 (Simulation time: 0 hr 11 min 8 sec) 
Heartbeat CPU  0 instructions:  324000000 cycles:  291827156 heartbeat IPC: 1.01215 cumulative IPC: 0.92600 (Simulation time: 0 hr 11 min 11 sec) 
Heartbeat CPU  0 instructions:  325000000 cycles:  292827738 heartbeat IPC: 0.99942 cumulative IPC: 0.92630 (Simulation time: 0 hr 11 min 13 sec) 
Heartbeat CPU  0 instructions:  326000002 cycles:  293826209 heartbeat IPC: 1.00153 cumulative IPC: 0.92661 (Simulation time: 0 hr 11 min 15 sec) 
Heartbeat CPU  0 instructions:  327000000 cycles:  294806750 heartbeat IPC: 1.01984 cumulative IPC: 0.92698 (Simulation time: 0 hr 11 min 17 sec) 
Heartbeat CPU  0 instructions:  328000000 cycles:  295797726 heartbeat IPC: 1.00911 cumulative IPC: 0.92731 (Simulation time: 0 hr 11 min 19 sec) 
Heartbeat CPU  0 instructions:  329000003 cycles:  296800034 heartbeat IPC: 0.99770 cumulative IPC: 0.92760 (Simulation time: 0 hr 11 min 21 sec) 
Heartbeat CPU  0 instructions:  330000000 cycles:  297717889 heartbeat IPC: 1.08949 cumulative IPC: 0.92820 (Simulation time: 0 hr 11 min 24 sec) 
Heartbeat CPU  0 instructions:  331000002 cycles:  298529373 heartbeat IPC: 1.23231 cumulative IPC: 0.92919 (Simulation time: 0 hr 11 min 26 sec) 
Heartbeat CPU  0 instructions:  332000000 cycles:  299547719 heartbeat IPC: 0.98198 cumulative IPC: 0.92941 (Simulation time: 0 hr 11 min 28 sec) 
Heartbeat CPU  0 instructions:  333000002 cycles:  300536852 heartbeat IPC: 1.01099 cumulative IPC: 0.92973 (Simulation time: 0 hr 11 min 30 sec) 
Heartbeat CPU  0 instructions:  334000001 cycles:  301522479 heartbeat IPC: 1.01458 cumulative IPC: 0.93006 (Simulation time: 0 hr 11 min 32 sec) 
Heartbeat CPU  0 instructions:  335000003 cycles:  302518856 heartbeat IPC: 1.00364 cumulative IPC: 0.93035 (Simulation time: 0 hr 11 min 34 sec) 
Heartbeat CPU  0 instructions:  336000000 cycles:  303505760 heartbeat IPC: 1.01327 cumulative IPC: 0.93067 (Simulation time: 0 hr 11 min 36 sec) 
Heartbeat CPU  0 instructions:  337000001 cycles:  304486165 heartbeat IPC: 1.01999 cumulative IPC: 0.93102 (Simulation time: 0 hr 11 min 38 sec) 
Heartbeat CPU  0 instructions:  338000000 cycles:  305487291 heartbeat IPC: 0.99887 cumulative IPC: 0.93128 (Simulation time: 0 hr 11 min 41 sec) 
Heartbeat CPU  0 instructions:  339000000 cycles:  306488589 heartbeat IPC: 0.99870 cumulative IPC: 0.93155 (Simulation time: 0 hr 11 min 43 sec) 
Heartbeat CPU  0 instructions:  340000000 cycles:  307491317 heartbeat IPC: 0.99728 cumulative IPC: 0.93180 (Simulation time: 0 hr 11 min 45 sec) 
Heartbeat CPU  0 instructions:  341000003 cycles:  308299415 heartbeat IPC: 1.23748 cumulative IPC: 0.93276 (Simulation time: 0 hr 11 min 47 sec) 
Heartbeat CPU  0 instructions:  342000001 cycles:  309214113 heartbeat IPC: 1.09325 cumulative IPC: 0.93332 (Simulation time: 0 hr 11 min 49 sec) 
Heartbeat CPU  0 instructions:  343000002 cycles:  310234329 heartbeat IPC: 0.98019 cumulative IPC: 0.93351 (Simulation time: 0 hr 11 min 51 sec) 
Heartbeat CPU  0 instructions:  344000000 cycles:  311228287 heartbeat IPC: 1.00608 cumulative IPC: 0.93378 (Simulation time: 0 hr 11 min 53 sec) 
Heartbeat CPU  0 instructions:  345000003 cycles:  312221508 heartbeat IPC: 1.00683 cumulative IPC: 0.93406 (Simulation time: 0 hr 11 min 55 sec) 
Heartbeat CPU  0 instructions:  346000000 cycles:  313195801 heartbeat IPC: 1.02638 cumulative IPC: 0.93440 (Simulation time: 0 hr 11 min 58 sec) 
Heartbeat CPU  0 instructions:  347000000 cycles:  314188424 heartbeat IPC: 1.00743 cumulative IPC: 0.93468 (Simulation time: 0 hr 12 min 0 sec) 
Heartbeat CPU  0 instructions:  348000000 cycles:  315188653 heartbeat IPC: 0.99977 cumulative IPC: 0.93492 (Simulation time: 0 hr 12 min 2 sec) 
Heartbeat CPU  0 instructions:  349000001 cycles:  316185047 heartbeat IPC: 1.00362 cumulative IPC: 0.93518 (Simulation time: 0 hr 12 min 4 sec) 
Heartbeat CPU  0 instructions:  350000002 cycles:  317185861 heartbeat IPC: 0.99919 cumulative IPC: 0.93542 (Simulation time: 0 hr 12 min 6 sec) 
Heartbeat CPU  0 instructions:  351000001 cycles:  318072790 heartbeat IPC: 1.12748 cumulative IPC: 0.93605 (Simulation time: 0 hr 12 min 8 sec) 
Heartbeat CPU  0 instructions:  352000000 cycles:  318886969 heartbeat IPC: 1.22823 cumulative IPC: 0.93694 (Simulation time: 0 hr 12 min 10 sec) 
Heartbeat CPU  0 instructions:  353000002 cycles:  319923737 heartbeat IPC: 0.96454 cumulative IPC: 0.93704 (Simulation time: 0 hr 12 min 12 sec) 
Heartbeat CPU  0 instructions:  354000002 cycles:  320911381 heartbeat IPC: 1.01251 cumulative IPC: 0.93732 (Simulation time: 0 hr 12 min 15 sec) 
Heartbeat CPU  0 instructions:  355000003 cycles:  321877251 heartbeat IPC: 1.03534 cumulative IPC: 0.93767 (Simulation time: 0 hr 12 min 17 sec) 
Heartbeat CPU  0 instructions:  356000000 cycles:  322860574 heartbeat IPC: 1.01696 cumulative IPC: 0.93795 (Simulation time: 0 hr 12 min 19 sec) 
Heartbeat CPU  0 instructions:  357000002 cycles:  323851159 heartbeat IPC: 1.00951 cumulative IPC: 0.93821 (Simulation time: 0 hr 12 min 21 sec) 
Heartbeat CPU  0 instructions:  358000003 cycles:  324847597 heartbeat IPC: 1.00358 cumulative IPC: 0.93845 (Simulation time: 0 hr 12 min 23 sec) 
Heartbeat CPU  0 instructions:  359000001 cycles:  325844346 heartbeat IPC: 1.00326 cumulative IPC: 0.93868 (Simulation time: 0 hr 12 min 25 sec) 
Heartbeat CPU  0 instructions:  360000000 cycles:  326851160 heartbeat IPC: 0.99323 cumulative IPC: 0.93888 (Simulation time: 0 hr 12 min 28 sec) 
Heartbeat CPU  0 instructions:  361000003 cycles:  327814881 heartbeat IPC: 1.03765 cumulative IPC: 0.93922 (Simulation time: 0 hr 12 min 30 sec) 
Heartbeat CPU  0 instructions:  362000000 cycles:  328621106 heartbeat IPC: 1.24034 cumulative IPC: 0.94010 (Simulation time: 0 hr 12 min 32 sec) 
Heartbeat CPU  0 instructions:  363000000 cycles:  329574747 heartbeat IPC: 1.04861 cumulative IPC: 0.94047 (Simulation time: 0 hr 12 min 34 sec) 
Heartbeat CPU  0 instructions:  364000000 cycles:  330567757 heartbeat IPC: 1.00704 cumulative IPC: 0.94070 (Simulation time: 0 hr 12 min 36 sec) 
Heartbeat CPU  0 instructions:  365000000 cycles:  331527853 heartbeat IPC: 1.04156 cumulative IPC: 0.94104 (Simulation time: 0 hr 12 min 38 sec) 
Heartbeat CPU  0 instructions:  366000001 cycles:  332512094 heartbeat IPC: 1.01601 cumulative IPC: 0.94131 (Simulation time: 0 hr 12 min 40 sec) 
Heartbeat CPU  0 instructions:  367000002 cycles:  333505932 heartbeat IPC: 1.00620 cumulative IPC: 0.94153 (Simulation time: 0 hr 12 min 42 sec) 
Heartbeat CPU  0 instructions:  368000000 cycles:  334505972 heartbeat IPC: 0.99996 cumulative IPC: 0.94174 (Simulation time: 0 hr 12 min 45 sec) 
Heartbeat CPU  0 instructions:  369000001 cycles:  335505309 heartbeat IPC: 1.00066 cumulative IPC: 0.94194 (Simulation time: 0 hr 12 min 47 sec) 
Heartbeat CPU  0 instructions:  370000002 cycles:  336511131 heartbeat IPC: 0.99421 cumulative IPC: 0.94213 (Simulation time: 0 hr 12 min 49 sec) 
Heartbeat CPU  0 instructions:  371000000 cycles:  337495597 heartbeat IPC: 1.01578 cumulative IPC: 0.94238 (Simulation time: 0 hr 12 min 51 sec) 
Heartbeat CPU  0 instructions:  372000000 cycles:  338360603 heartbeat IPC: 1.15606 cumulative IPC: 0.94302 (Simulation time: 0 hr 12 min 53 sec) 
Heartbeat CPU  0 instructions:  373000003 cycles:  339175146 heartbeat IPC: 1.22769 cumulative IPC: 0.94382 (Simulation time: 0 hr 12 min 55 sec) 
Heartbeat CPU  0 instructions:  374000003 cycles:  340246064 heartbeat IPC: 0.93378 cumulative IPC: 0.94379 (Simulation time: 0 hr 12 min 57 sec) 
Heartbeat CPU  0 instructions:  375000001 cycles:  341216419 heartbeat IPC: 1.03055 cumulative IPC: 0.94407 (Simulation time: 0 hr 12 min 59 sec) 
Heartbeat CPU  0 instructions:  376000000 cycles:  342196093 heartbeat IPC: 1.02075 cumulative IPC: 0.94433 (Simulation time: 0 hr 13 min 2 sec) 
Heartbeat CPU  0 instructions:  377000001 cycles:  343190571 heartbeat IPC: 1.00555 cumulative IPC: 0.94454 (Simulation time: 0 hr 13 min 4 sec) 
Heartbeat CPU  0 instructions:  378000002 cycles:  344192978 heartbeat IPC: 0.99760 cumulative IPC: 0.94472 (Simulation time: 0 hr 13 min 6 sec) 
Heartbeat CPU  0 instructions:  379000001 cycles:  345195045 heartbeat IPC: 0.99794 cumulative IPC: 0.94490 (Simulation time: 0 hr 13 min 8 sec) 
Heartbeat CPU  0 instructions:  380000000 cycles:  346196533 heartbeat IPC: 0.99851 cumulative IPC: 0.94508 (Simulation time: 0 hr 13 min 10 sec) 
Heartbeat CPU  0 instructions:  381000000 cycles:  347174996 heartbeat IPC: 1.02201 cumulative IPC: 0.94534 (Simulation time: 0 hr 13 min 12 sec) 
Heartbeat CPU  0 instructions:  382000003 cycles:  348134583 heartbeat IPC: 1.04212 cumulative IPC: 0.94565 (Simulation time: 0 hr 13 min 15 sec) 
Heartbeat CPU  0 instructions:  383000001 cycles:  348940850 heartbeat IPC: 1.24028 cumulative IPC: 0.94644 (Simulation time: 0 hr 13 min 17 sec) 
Heartbeat CPU  0 instructions:  384000000 cycles:  349916990 heartbeat IPC: 1.02444 cumulative IPC: 0.94670 (Simulation time: 0 hr 13 min 19 sec) 
Heartbeat CPU  0 instructions:  385000000 cycles:  350916164 heartbeat IPC: 1.00083 cumulative IPC: 0.94687 (Simulation time: 0 hr 13 min 21 sec) 
Heartbeat CPU  0 instructions:  386000001 cycles:  351875760 heartbeat IPC: 1.04211 cumulative IPC: 0.94718 (Simulation time: 0 hr 13 min 23 sec) 
Heartbeat CPU  0 instructions:  387000000 cycles:  352870682 heartbeat IPC: 1.00510 cumulative IPC: 0.94737 (Simulation time: 0 hr 13 min 25 sec) 
Heartbeat CPU  0 instructions:  388000000 cycles:  353864632 heartbeat IPC: 1.00609 cumulative IPC: 0.94756 (Simulation time: 0 hr 13 min 27 sec) 
Heartbeat CPU  0 instructions:  389000001 cycles:  354867637 heartbeat IPC: 0.99700 cumulative IPC: 0.94772 (Simulation time: 0 hr 13 min 30 sec) 
Heartbeat CPU  0 instructions:  390000000 cycles:  355846637 heartbeat IPC: 1.02145 cumulative IPC: 0.94796 (Simulation time: 0 hr 13 min 32 sec) 
Heartbeat CPU  0 instructions:  391000003 cycles:  356835616 heartbeat IPC: 1.01115 cumulative IPC: 0.94816 (Simulation time: 0 hr 13 min 34 sec) 
Heartbeat CPU  0 instructions:  392000000 cycles:  357825598 heartbeat IPC: 1.01012 cumulative IPC: 0.94836 (Simulation time: 0 hr 13 min 36 sec) 
Heartbeat CPU  0 instructions:  393000002 cycles:  358696733 heartbeat IPC: 1.14793 cumulative IPC: 0.94892 (Simulation time: 0 hr 13 min 38 sec) 
Heartbeat CPU  0 instructions:  394000000 cycles:  359508450 heartbeat IPC: 1.23195 cumulative IPC: 0.94967 (Simulation time: 0 hr 13 min 40 sec) 
Heartbeat CPU  0 instructions:  395000002 cycles:  360600889 heartbeat IPC: 0.91538 cumulative IPC: 0.94955 (Simulation time: 0 hr 13 min 42 sec) 
Heartbeat CPU  0 instructions:  396000000 cycles:  361578469 heartbeat IPC: 1.02293 cumulative IPC: 0.94978 (Simulation time: 0 hr 13 min 44 sec) 
Heartbeat CPU  0 instructions:  397000003 cycles:  362557875 heartbeat IPC: 1.02103 cumulative IPC: 0.95000 (Simulation time: 0 hr 13 min 47 sec) 
Heartbeat CPU  0 instructions:  398000001 cycles:  363550305 heartbeat IPC: 1.00763 cumulative IPC: 0.95018 (Simulation time: 0 hr 13 min 49 sec) 
Heartbeat CPU  0 instructions:  399000000 cycles:  364549841 heartbeat IPC: 1.00046 cumulative IPC: 0.95034 (Simulation time: 0 hr 13 min 51 sec) 
Heartbeat CPU  0 instructions:  400000000 cycles:  365552443 heartbeat IPC: 0.99740 cumulative IPC: 0.95049 (Simulation time: 0 hr 13 min 53 sec) 
Heartbeat CPU  0 instructions:  401000002 cycles:  366539027 heartbeat IPC: 1.01360 cumulative IPC: 0.95069 (Simulation time: 0 hr 13 min 55 sec) 
Heartbeat CPU  0 instructions:  402000000 cycles:  367531763 heartbeat IPC: 1.00732 cumulative IPC: 0.95086 (Simulation time: 0 hr 13 min 57 sec) 
Heartbeat CPU  0 instructions:  403000000 cycles:  368479668 heartbeat IPC: 1.05496 cumulative IPC: 0.95117 (Simulation time: 0 hr 13 min 59 sec) 
Heartbeat CPU  0 instructions:  404000000 cycles:  369288744 heartbeat IPC: 1.23598 cumulative IPC: 0.95190 (Simulation time: 0 hr 14 min 2 sec) 
Heartbeat CPU  0 instructions:  405000003 cycles:  370955045 heartbeat IPC: 0.60013 cumulative IPC: 0.95007 (Simulation time: 0 hr 14 min 4 sec) 
Heartbeat CPU  0 instructions:  406000003 cycles:  372136691 heartbeat IPC: 0.84628 cumulative IPC: 0.94969 (Simulation time: 0 hr 14 min 6 sec) 
Heartbeat CPU  0 instructions:  407000000 cycles:  373294457 heartbeat IPC: 0.86373 cumulative IPC: 0.94938 (Simulation time: 0 hr 14 min 9 sec) 
Heartbeat CPU  0 instructions:  408000000 cycles:  374348243 heartbeat IPC: 0.94896 cumulative IPC: 0.94938 (Simulation time: 0 hr 14 min 11 sec) 
Heartbeat CPU  0 instructions:  409000003 cycles:  375387336 heartbeat IPC: 0.96238 cumulative IPC: 0.94942 (Simulation time: 0 hr 14 min 13 sec) 
Heartbeat CPU  0 instructions:  410000000 cycles:  376400006 heartbeat IPC: 0.98749 cumulative IPC: 0.94954 (Simulation time: 0 hr 14 min 15 sec) 
Heartbeat CPU  0 instructions:  411000000 cycles:  377399773 heartbeat IPC: 1.00023 cumulative IPC: 0.94969 (Simulation time: 0 hr 14 min 17 sec) 
Heartbeat CPU  0 instructions:  412000000 cycles:  378396498 heartbeat IPC: 1.00329 cumulative IPC: 0.94986 (Simulation time: 0 hr 14 min 20 sec) 
Heartbeat CPU  0 instructions:  413000003 cycles:  379403358 heartbeat IPC: 0.99319 cumulative IPC: 0.94999 (Simulation time: 0 hr 14 min 22 sec) 
Heartbeat CPU  0 instructions:  414000000 cycles:  380398039 heartbeat IPC: 1.00534 cumulative IPC: 0.95016 (Simulation time: 0 hr 14 min 24 sec) 
Heartbeat CPU  0 instructions:  415000003 cycles:  381396741 heartbeat IPC: 1.00130 cumulative IPC: 0.95031 (Simulation time: 0 hr 14 min 27 sec) 
Heartbeat CPU  0 instructions:  416000000 cycles:  382598433 heartbeat IPC: 0.83216 cumulative IPC: 0.94988 (Simulation time: 0 hr 14 min 29 sec) 
Heartbeat CPU  0 instructions:  417000001 cycles:  383594684 heartbeat IPC: 1.00376 cumulative IPC: 0.95004 (Simulation time: 0 hr 14 min 31 sec) 
Heartbeat CPU  0 instructions:  418000003 cycles:  384589266 heartbeat IPC: 1.00545 cumulative IPC: 0.95021 (Simulation time: 0 hr 14 min 33 sec) 
Heartbeat CPU  0 instructions:  419000002 cycles:  385583049 heartbeat IPC: 1.00625 cumulative IPC: 0.95037 (Simulation time: 0 hr 14 min 36 sec) 
Heartbeat CPU  0 instructions:  420000000 cycles:  386579748 heartbeat IPC: 1.00331 cumulative IPC: 0.95053 (Simulation time: 0 hr 14 min 38 sec) 
Heartbeat CPU  0 instructions:  421000003 cycles:  387576564 heartbeat IPC: 1.00320 cumulative IPC: 0.95069 (Simulation time: 0 hr 14 min 40 sec) 
Heartbeat CPU  0 instructions:  422000003 cycles:  388574112 heartbeat IPC: 1.00246 cumulative IPC: 0.95084 (Simulation time: 0 hr 14 min 42 sec) 
Heartbeat CPU  0 instructions:  423000002 cycles:  389575804 heartbeat IPC: 0.99831 cumulative IPC: 0.95098 (Simulation time: 0 hr 14 min 44 sec) 
Heartbeat CPU  0 instructions:  424000000 cycles:  390565269 heartbeat IPC: 1.01065 cumulative IPC: 0.95115 (Simulation time: 0 hr 14 min 47 sec) 
Heartbeat CPU  0 instructions:  425000003 cycles:  391565512 heartbeat IPC: 0.99976 cumulative IPC: 0.95130 (Simulation time: 0 hr 14 min 49 sec) 
Heartbeat CPU  0 instructions:  426000001 cycles:  392708283 heartbeat IPC: 0.87506 cumulative IPC: 0.95104 (Simulation time: 0 hr 14 min 51 sec) 
Heartbeat CPU  0 instructions:  427000003 cycles:  393802299 heartbeat IPC: 0.91407 cumulative IPC: 0.95092 (Simulation time: 0 hr 14 min 53 sec) 
Heartbeat CPU  0 instructions:  428000000 cycles:  394805908 heartbeat IPC: 0.99640 cumulative IPC: 0.95106 (Simulation time: 0 hr 14 min 56 sec) 
Heartbeat CPU  0 instructions:  429000000 cycles:  395809736 heartbeat IPC: 0.99619 cumulative IPC: 0.95119 (Simulation time: 0 hr 14 min 58 sec) 
Heartbeat CPU  0 instructions:  430000003 cycles:  396803805 heartbeat IPC: 1.00597 cumulative IPC: 0.95134 (Simulation time: 0 hr 15 min 0 sec) 
Heartbeat CPU  0 instructions:  431000002 cycles:  397801594 heartbeat IPC: 1.00221 cumulative IPC: 0.95149 (Simulation time: 0 hr 15 min 2 sec) 
Heartbeat CPU  0 instructions:  432000000 cycles:  398804751 heartbeat IPC: 0.99685 cumulative IPC: 0.95162 (Simulation time: 0 hr 15 min 4 sec) 
Heartbeat CPU  0 instructions:  433000001 cycles:  399803718 heartbeat IPC: 1.00104 cumulative IPC: 0.95176 (Simulation time: 0 hr 15 min 7 sec) 
Heartbeat CPU  0 instructions:  434000001 cycles:  400802120 heartbeat IPC: 1.00160 cumulative IPC: 0.95190 (Simulation time: 0 hr 15 min 9 sec) 
Heartbeat CPU  0 instructions:  435000002 cycles:  401794266 heartbeat IPC: 1.00792 cumulative IPC: 0.95206 (Simulation time: 0 hr 15 min 11 sec) 
Heartbeat CPU  0 instructions:  436000000 cycles:  402830878 heartbeat IPC: 0.96468 cumulative IPC: 0.95210 (Simulation time: 0 hr 15 min 13 sec) 
Heartbeat CPU  0 instructions:  437000001 cycles:  403972274 heartbeat IPC: 0.87612 cumulative IPC: 0.95185 (Simulation time: 0 hr 15 min 15 sec) 
Heartbeat CPU  0 instructions:  438000002 cycles:  404969144 heartbeat IPC: 1.00314 cumulative IPC: 0.95200 (Simulation time: 0 hr 15 min 18 sec) 
Heartbeat CPU  0 instructions:  439000003 cycles:  405961630 heartbeat IPC: 1.00757 cumulative IPC: 0.95215 (Simulation time: 0 hr 15 min 20 sec) 
Heartbeat CPU  0 instructions:  440000000 cycles:  406953306 heartbeat IPC: 1.00839 cumulative IPC: 0.95231 (Simulation time: 0 hr 15 min 22 sec) 
Heartbeat CPU  0 instructions:  441000000 cycles:  407946430 heartbeat IPC: 1.00692 cumulative IPC: 0.95246 (Simulation time: 0 hr 15 min 24 sec) 
Heartbeat CPU  0 instructions:  442000003 cycles:  408955007 heartbeat IPC: 0.99150 cumulative IPC: 0.95257 (Simulation time: 0 hr 15 min 26 sec) 
Heartbeat CPU  0 instructions:  443000003 cycles:  409950987 heartbeat IPC: 1.00404 cumulative IPC: 0.95271 (Simulation time: 0 hr 15 min 29 sec) 
Heartbeat CPU  0 instructions:  444000000 cycles:  410943562 heartbeat IPC: 1.00748 cumulative IPC: 0.95286 (Simulation time: 0 hr 15 min 31 sec) 
Heartbeat CPU  0 instructions:  445000000 cycles:  411935571 heartbeat IPC: 1.00806 cumulative IPC: 0.95301 (Simulation time: 0 hr 15 min 33 sec) 
Heartbeat CPU  0 instructions:  446000001 cycles:  412928880 heartbeat IPC: 1.00674 cumulative IPC: 0.95316 (Simulation time: 0 hr 15 min 35 sec) 
Heartbeat CPU  0 instructions:  447000000 cycles:  414097606 heartbeat IPC: 0.85563 cumulative IPC: 0.95285 (Simulation time: 0 hr 15 min 38 sec) 
Heartbeat CPU  0 instructions:  448000000 cycles:  415108162 heartbeat IPC: 0.98955 cumulative IPC: 0.95295 (Simulation time: 0 hr 15 min 40 sec) 
Heartbeat CPU  0 instructions:  449000002 cycles:  416098977 heartbeat IPC: 1.00927 cumulative IPC: 0.95310 (Simulation time: 0 hr 15 min 42 sec) 
Heartbeat CPU  0 instructions:  450000000 cycles:  417089594 heartbeat IPC: 1.00947 cumulative IPC: 0.95325 (Simulation time: 0 hr 15 min 44 sec) 
Heartbeat CPU  0 instructions:  451000003 cycles:  418081012 heartbeat IPC: 1.00866 cumulative IPC: 0.95340 (Simulation time: 0 hr 15 min 46 sec) 
Heartbeat CPU  0 instructions:  452000000 cycles:  419076213 heartbeat IPC: 1.00482 cumulative IPC: 0.95354 (Simulation time: 0 hr 15 min 49 sec) 
Heartbeat CPU  0 instructions:  453000002 cycles:  420070119 heartbeat IPC: 1.00613 cumulative IPC: 0.95368 (Simulation time: 0 hr 15 min 51 sec) 
Heartbeat CPU  0 instructions:  454000003 cycles:  421066573 heartbeat IPC: 1.00356 cumulative IPC: 0.95382 (Simulation time: 0 hr 15 min 53 sec) 
Heartbeat CPU  0 instructions:  455000001 cycles:  422056534 heartbeat IPC: 1.01014 cumulative IPC: 0.95397 (Simulation time: 0 hr 15 min 55 sec) 
Heartbeat CPU  0 instructions:  456000000 cycles:  423054991 heartbeat IPC: 1.00154 cumulative IPC: 0.95409 (Simulation time: 0 hr 15 min 57 sec) 
Heartbeat CPU  0 instructions:  457000002 cycles:  424373191 heartbeat IPC: 0.75861 cumulative IPC: 0.95341 (Simulation time: 0 hr 16 min 0 sec) 
Heartbeat CPU  0 instructions:  458000002 cycles:  425942773 heartbeat IPC: 0.63711 cumulative IPC: 0.95209 (Simulation time: 0 hr 16 min 2 sec) 
Heartbeat CPU  0 instructions:  459000002 cycles:  426974768 heartbeat IPC: 0.96900 cumulative IPC: 0.95213 (Simulation time: 0 hr 16 min 4 sec) 
Heartbeat CPU  0 instructions:  460000000 cycles:  427903191 heartbeat IPC: 1.07709 cumulative IPC: 0.95244 (Simulation time: 0 hr 16 min 6 sec) 
Heartbeat CPU  0 instructions:  461000002 cycles:  428851666 heartbeat IPC: 1.05433 cumulative IPC: 0.95269 (Simulation time: 0 hr 16 min 8 sec) 
Heartbeat CPU  0 instructions:  462000002 cycles:  429791998 heartbeat IPC: 1.06345 cumulative IPC: 0.95297 (Simulation time: 0 hr 16 min 11 sec) 
Heartbeat CPU  0 instructions:  463000002 cycles:  430735837 heartbeat IPC: 1.05950 cumulative IPC: 0.95323 (Simulation time: 0 hr 16 min 13 sec) 
Heartbeat CPU  0 instructions:  464000000 cycles:  431688363 heartbeat IPC: 1.04984 cumulative IPC: 0.95347 (Simulation time: 0 hr 16 min 15 sec) 
Heartbeat CPU  0 instructions:  465000000 cycles:  433494094 heartbeat IPC: 0.55379 cumulative IPC: 0.95159 (Simulation time: 0 hr 16 min 17 sec) 
Heartbeat CPU  0 instructions:  466000001 cycles:  434474571 heartbeat IPC: 1.01991 cumulative IPC: 0.95177 (Simulation time: 0 hr 16 min 19 sec) 
Heartbeat CPU  0 instructions:  467000000 cycles:  435431889 heartbeat IPC: 1.04458 cumulative IPC: 0.95200 (Simulation time: 0 hr 16 min 21 sec) 
Heartbeat CPU  0 instructions:  468000000 cycles:  436443160 heartbeat IPC: 0.98885 cumulative IPC: 0.95209 (Simulation time: 0 hr 16 min 23 sec) 
Heartbeat CPU  0 instructions:  469000003 cycles:  437427029 heartbeat IPC: 1.01640 cumulative IPC: 0.95226 (Simulation time: 0 hr 16 min 25 sec) 
Heartbeat CPU  0 instructions:  470000001 cycles:  438419222 heartbeat IPC: 1.00787 cumulative IPC: 0.95240 (Simulation time: 0 hr 16 min 27 sec) 
Heartbeat CPU  0 instructions:  471000003 cycles:  439393756 heartbeat IPC: 1.02613 cumulative IPC: 0.95258 (Simulation time: 0 hr 16 min 30 sec) 
Heartbeat CPU  0 instructions:  472000000 cycles:  440904246 heartbeat IPC: 0.66203 cumulative IPC: 0.95146 (Simulation time: 0 hr 16 min 32 sec) 
Heartbeat CPU  0 instructions:  473000000 cycles:  442191233 heartbeat IPC: 0.77701 cumulative IPC: 0.95089 (Simulation time: 0 hr 16 min 34 sec) 
Heartbeat CPU  0 instructions:  474000000 cycles:  443331454 heartbeat IPC: 0.87702 cumulative IPC: 0.95067 (Simulation time: 0 hr 16 min 36 sec) 
Heartbeat CPU  0 instructions:  475000002 cycles:  444541633 heartbeat IPC: 0.82633 cumulative IPC: 0.95029 (Simulation time: 0 hr 16 min 38 sec) 
Heartbeat CPU  0 instructions:  476000000 cycles:  445762884 heartbeat IPC: 0.81883 cumulative IPC: 0.94989 (Simulation time: 0 hr 16 min 40 sec) 
Heartbeat CPU  0 instructions:  477000002 cycles:  446989829 heartbeat IPC: 0.81503 cumulative IPC: 0.94947 (Simulation time: 0 hr 16 min 43 sec) 
Heartbeat CPU  0 instructions:  478000002 cycles:  448161414 heartbeat IPC: 0.85354 cumulative IPC: 0.94919 (Simulation time: 0 hr 16 min 45 sec) 
Heartbeat CPU  0 instructions:  479000002 cycles:  449411877 heartbeat IPC: 0.79970 cumulative IPC: 0.94872 (Simulation time: 0 hr 16 min 47 sec) 
Heartbeat CPU  0 instructions:  480000000 cycles:  451127885 heartbeat IPC: 0.58275 cumulative IPC: 0.94715 (Simulation time: 0 hr 16 min 50 sec) 
Heartbeat CPU  0 instructions:  481000002 cycles:  452499362 heartbeat IPC: 0.72914 cumulative IPC: 0.94641 (Simulation time: 0 hr 16 min 52 sec) 
Heartbeat CPU  0 instructions:  482000003 cycles:  453897799 heartbeat IPC: 0.71508 cumulative IPC: 0.94561 (Simulation time: 0 hr 16 min 55 sec) 
Heartbeat CPU  0 instructions:  483000000 cycles:  455289966 heartbeat IPC: 0.71830 cumulative IPC: 0.94483 (Simulation time: 0 hr 16 min 57 sec) 
Heartbeat CPU  0 instructions:  484000000 cycles:  456686611 heartbeat IPC: 0.71600 cumulative IPC: 0.94404 (Simulation time: 0 hr 17 min 0 sec) 
Heartbeat CPU  0 instructions:  485000003 cycles:  458072225 heartbeat IPC: 0.72170 cumulative IPC: 0.94329 (Simulation time: 0 hr 17 min 2 sec) 
Heartbeat CPU  0 instructions:  486000003 cycles:  459475428 heartbeat IPC: 0.71266 cumulative IPC: 0.94250 (Simulation time: 0 hr 17 min 5 sec) 
Heartbeat CPU  0 instructions:  487000000 cycles:  460886984 heartbeat IPC: 0.70844 cumulative IPC: 0.94170 (Simulation time: 0 hr 17 min 7 sec) 
Heartbeat CPU  0 instructions:  488000000 cycles:  462294248 heartbeat IPC: 0.71060 cumulative IPC: 0.94091 (Simulation time: 0 hr 17 min 10 sec) 
Heartbeat CPU  0 instructions:  489000000 cycles:  463696337 heartbeat IPC: 0.71322 cumulative IPC: 0.94014 (Simulation time: 0 hr 17 min 12 sec) 
Heartbeat CPU  0 instructions:  490000000 cycles:  465133488 heartbeat IPC: 0.69582 cumulative IPC: 0.93929 (Simulation time: 0 hr 17 min 15 sec) 
Heartbeat CPU  0 instructions:  491000001 cycles:  466541585 heartbeat IPC: 0.71018 cumulative IPC: 0.93852 (Simulation time: 0 hr 17 min 17 sec) 
Heartbeat CPU  0 instructions:  492000000 cycles:  467957177 heartbeat IPC: 0.70642 cumulative IPC: 0.93773 (Simulation time: 0 hr 17 min 20 sec) 
Heartbeat CPU  0 instructions:  493000001 cycles:  469359009 heartbeat IPC: 0.71335 cumulative IPC: 0.93698 (Simulation time: 0 hr 17 min 22 sec) 
Heartbeat CPU  0 instructions:  494000000 cycles:  470783317 heartbeat IPC: 0.70209 cumulative IPC: 0.93618 (Simulation time: 0 hr 17 min 25 sec) 
Heartbeat CPU  0 instructions:  495000001 cycles:  472184994 heartbeat IPC: 0.71343 cumulative IPC: 0.93544 (Simulation time: 0 hr 17 min 27 sec) 
Heartbeat CPU  0 instructions:  496000000 cycles:  473594801 heartbeat IPC: 0.70932 cumulative IPC: 0.93469 (Simulation time: 0 hr 17 min 30 sec) 
Heartbeat CPU  0 instructions:  497000001 cycles:  475005212 heartbeat IPC: 0.70901 cumulative IPC: 0.93394 (Simulation time: 0 hr 17 min 32 sec) 
Heartbeat CPU  0 instructions:  498000001 cycles:  476423323 heartbeat IPC: 0.70516 cumulative IPC: 0.93318 (Simulation time: 0 hr 17 min 35 sec) 
Heartbeat CPU  0 instructions:  499000002 cycles:  477832143 heartbeat IPC: 0.70981 cumulative IPC: 0.93245 (Simulation time: 0 hr 17 min 37 sec) 
Heartbeat CPU  0 instructions:  500000000 cycles:  479237941 heartbeat IPC: 0.71134 cumulative IPC: 0.93172 (Simulation time: 0 hr 17 min 40 sec) 
Heartbeat CPU  0 instructions:  501000002 cycles:  480646205 heartbeat IPC: 0.71010 cumulative IPC: 0.93100 (Simulation time: 0 hr 17 min 43 sec) 
Heartbeat CPU  0 instructions:  502000003 cycles:  482052827 heartbeat IPC: 0.71092 cumulative IPC: 0.93028 (Simulation time: 0 hr 17 min 45 sec) 
Heartbeat CPU  0 instructions:  503000000 cycles:  483473862 heartbeat IPC: 0.70371 cumulative IPC: 0.92954 (Simulation time: 0 hr 17 min 48 sec) 
Heartbeat CPU  0 instructions:  504000000 cycles:  484876217 heartbeat IPC: 0.71309 cumulative IPC: 0.92884 (Simulation time: 0 hr 17 min 50 sec) 
Heartbeat CPU  0 instructions:  505000001 cycles:  486294408 heartbeat IPC: 0.70512 cumulative IPC: 0.92811 (Simulation time: 0 hr 17 min 53 sec) 
Heartbeat CPU  0 instructions:  506000000 cycles:  487704001 heartbeat IPC: 0.70942 cumulative IPC: 0.92741 (Simulation time: 0 hr 17 min 55 sec) 
Heartbeat CPU  0 instructions:  507000003 cycles:  489126382 heartbeat IPC: 0.70305 cumulative IPC: 0.92668 (Simulation time: 0 hr 17 min 58 sec) 
Heartbeat CPU  0 instructions:  508000000 cycles:  490538673 heartbeat IPC: 0.70807 cumulative IPC: 0.92598 (Simulation time: 0 hr 18 min 0 sec) 
Heartbeat CPU  0 instructions:  509000003 cycles:  491948674 heartbeat IPC: 0.70922 cumulative IPC: 0.92529 (Simulation time: 0 hr 18 min 3 sec) 
Heartbeat CPU  0 instructions:  510000000 cycles:  493356545 heartbeat IPC: 0.71029 cumulative IPC: 0.92461 (Simulation time: 0 hr 18 min 5 sec) 
Heartbeat CPU  0 instructions:  511000002 cycles:  494853910 heartbeat IPC: 0.66784 cumulative IPC: 0.92375 (Simulation time: 0 hr 18 min 8 sec) 
Heartbeat CPU  0 instructions:  512000000 cycles:  496260268 heartbeat IPC: 0.71106 cumulative IPC: 0.92307 (Simulation time: 0 hr 18 min 10 sec) 
Heartbeat CPU  0 instructions:  513000000 cycles:  497531774 heartbeat IPC: 0.78647 cumulative IPC: 0.92269 (Simulation time: 0 hr 18 min 12 sec) 
Heartbeat CPU  0 instructions:  514000003 cycles:  498531886 heartbeat IPC: 0.99989 cumulative IPC: 0.92286 (Simulation time: 0 hr 18 min 15 sec) 
Heartbeat CPU  0 instructions:  515000002 cycles:  499488201 heartbeat IPC: 1.04568 cumulative IPC: 0.92312 (Simulation time: 0 hr 18 min 17 sec) 
Heartbeat CPU  0 instructions:  516000000 cycles:  500459105 heartbeat IPC: 1.02997 cumulative IPC: 0.92335 (Simulation time: 0 hr 18 min 19 sec) 
Heartbeat CPU  0 instructions:  517000001 cycles:  501451760 heartbeat IPC: 1.00740 cumulative IPC: 0.92354 (Simulation time: 0 hr 18 min 21 sec) 
Heartbeat CPU  0 instructions:  518000003 cycles:  502349640 heartbeat IPC: 1.11374 cumulative IPC: 0.92391 (Simulation time: 0 hr 18 min 23 sec) 
Heartbeat CPU  0 instructions:  519000001 cycles:  503328022 heartbeat IPC: 1.02209 cumulative IPC: 0.92412 (Simulation time: 0 hr 18 min 25 sec) 
Heartbeat CPU  0 instructions:  520000000 cycles:  504270619 heartbeat IPC: 1.06090 cumulative IPC: 0.92441 (Simulation time: 0 hr 18 min 27 sec) 
Heartbeat CPU  0 instructions:  521000002 cycles:  505183946 heartbeat IPC: 1.09490 cumulative IPC: 0.92475 (Simulation time: 0 hr 18 min 29 sec) 
Heartbeat CPU  0 instructions:  522000002 cycles:  506170435 heartbeat IPC: 1.01370 cumulative IPC: 0.92494 (Simulation time: 0 hr 18 min 31 sec) 
Heartbeat CPU  0 instructions:  523000000 cycles:  507057110 heartbeat IPC: 1.12781 cumulative IPC: 0.92534 (Simulation time: 0 hr 18 min 34 sec) 
Heartbeat CPU  0 instructions:  524000000 cycles:  508007997 heartbeat IPC: 1.05165 cumulative IPC: 0.92560 (Simulation time: 0 hr 18 min 36 sec) 
Heartbeat CPU  0 instructions:  525000003 cycles:  508978901 heartbeat IPC: 1.02997 cumulative IPC: 0.92582 (Simulation time: 0 hr 18 min 38 sec) 
Heartbeat CPU  0 instructions:  526000000 cycles:  509886944 heartbeat IPC: 1.10127 cumulative IPC: 0.92617 (Simulation time: 0 hr 18 min 40 sec) 
Heartbeat CPU  0 instructions:  527000003 cycles:  510848861 heartbeat IPC: 1.03959 cumulative IPC: 0.92640 (Simulation time: 0 hr 18 min 42 sec) 
Heartbeat CPU  0 instructions:  528000000 cycles:  511779312 heartbeat IPC: 1.07474 cumulative IPC: 0.92670 (Simulation time: 0 hr 18 min 44 sec) 
Heartbeat CPU  0 instructions:  529000003 cycles:  512716289 heartbeat IPC: 1.06727 cumulative IPC: 0.92699 (Simulation time: 0 hr 18 min 46 sec) 
Heartbeat CPU  0 instructions:  530000001 cycles:  513687799 heartbeat IPC: 1.02932 cumulative IPC: 0.92720 (Simulation time: 0 hr 18 min 48 sec) 
Heartbeat CPU  0 instructions:  531000000 cycles:  514604683 heartbeat IPC: 1.09065 cumulative IPC: 0.92752 (Simulation time: 0 hr 18 min 50 sec) 
Heartbeat CPU  0 instructions:  532000000 cycles:  515554809 heartbeat IPC: 1.05249 cumulative IPC: 0.92778 (Simulation time: 0 hr 18 min 52 sec) 
Heartbeat CPU  0 instructions:  533000001 cycles:  516500231 heartbeat IPC: 1.05773 cumulative IPC: 0.92804 (Simulation time: 0 hr 18 min 55 sec) 
Heartbeat CPU  0 instructions:  534000002 cycles:  517407278 heartbeat IPC: 1.10248 cumulative IPC: 0.92838 (Simulation time: 0 hr 18 min 57 sec) 
Heartbeat CPU  0 instructions:  535000000 cycles:  518368426 heartbeat IPC: 1.04042 cumulative IPC: 0.92861 (Simulation time: 0 hr 18 min 59 sec) 
Heartbeat CPU  0 instructions:  536000000 cycles:  519289975 heartbeat IPC: 1.08513 cumulative IPC: 0.92892 (Simulation time: 0 hr 19 min 1 sec) 
Heartbeat CPU  0 instructions:  537000002 cycles:  520229726 heartbeat IPC: 1.06411 cumulative IPC: 0.92919 (Simulation time: 0 hr 19 min 3 sec) 
Heartbeat CPU  0 instructions:  538000002 cycles:  521186047 heartbeat IPC: 1.04567 cumulative IPC: 0.92942 (Simulation time: 0 hr 19 min 5 sec) 
Heartbeat CPU  0 instructions:  539000000 cycles:  522102010 heartbeat IPC: 1.09175 cumulative IPC: 0.92974 (Simulation time: 0 hr 19 min 7 sec) 
Heartbeat CPU  0 instructions:  540000000 cycles:  523049413 heartbeat IPC: 1.05552 cumulative IPC: 0.92999 (Simulation time: 0 hr 19 min 9 sec) 
Heartbeat CPU  0 instructions:  541000000 cycles:  523972900 heartbeat IPC: 1.08285 cumulative IPC: 0.93029 (Simulation time: 0 hr 19 min 11 sec) 
Heartbeat CPU  0 instructions:  542000002 cycles:  524898578 heartbeat IPC: 1.08029 cumulative IPC: 0.93058 (Simulation time: 0 hr 19 min 13 sec) 
Heartbeat CPU  0 instructions:  543000003 cycles:  525848490 heartbeat IPC: 1.05273 cumulative IPC: 0.93082 (Simulation time: 0 hr 19 min 15 sec) 
Heartbeat CPU  0 instructions:  544000000 cycles:  526781249 heartbeat IPC: 1.07209 cumulative IPC: 0.93110 (Simulation time: 0 hr 19 min 18 sec) 
Heartbeat CPU  0 instructions:  545000001 cycles:  527694598 heartbeat IPC: 1.09487 cumulative IPC: 0.93141 (Simulation time: 0 hr 19 min 20 sec) 
Heartbeat CPU  0 instructions:  546000003 cycles:  528640890 heartbeat IPC: 1.05676 cumulative IPC: 0.93166 (Simulation time: 0 hr 19 min 22 sec) 
Heartbeat CPU  0 instructions:  547000000 cycles:  529568389 heartbeat IPC: 1.07817 cumulative IPC: 0.93194 (Simulation time: 0 hr 19 min 24 sec) 
Heartbeat CPU  0 instructions:  548000000 cycles:  530514359 heartbeat IPC: 1.05712 cumulative IPC: 0.93219 (Simulation time: 0 hr 19 min 26 sec) 
Heartbeat CPU  0 instructions:  549000001 cycles:  531457848 heartbeat IPC: 1.05990 cumulative IPC: 0.93244 (Simulation time: 0 hr 19 min 28 sec) 
Heartbeat CPU  0 instructions:  550000001 cycles:  532351154 heartbeat IPC: 1.11944 cumulative IPC: 0.93279 (Simulation time: 0 hr 19 min 30 sec) 
Heartbeat CPU  0 instructions:  551000002 cycles:  533303323 heartbeat IPC: 1.05023 cumulative IPC: 0.93302 (Simulation time: 0 hr 19 min 32 sec) 
Heartbeat CPU  0 instructions:  552000000 cycles:  534225210 heartbeat IPC: 1.08473 cumulative IPC: 0.93331 (Simulation time: 0 hr 19 min 34 sec) 
Heartbeat CPU  0 instructions:  553000002 cycles:  535155788 heartbeat IPC: 1.07460 cumulative IPC: 0.93358 (Simulation time: 0 hr 19 min 36 sec) 
Heartbeat CPU  0 instructions:  554000002 cycles:  536105158 heartbeat IPC: 1.05333 cumulative IPC: 0.93381 (Simulation time: 0 hr 19 min 39 sec) 
Heartbeat CPU  0 instructions:  555000001 cycles:  536989361 heartbeat IPC: 1.13096 cumulative IPC: 0.93417 (Simulation time: 0 hr 19 min 41 sec) 
Heartbeat CPU  0 instructions:  556000000 cycles:  537934902 heartbeat IPC: 1.05759 cumulative IPC: 0.93441 (Simulation time: 0 hr 19 min 43 sec) 
Heartbeat CPU  0 instructions:  557000003 cycles:  538868723 heartbeat IPC: 1.07087 cumulative IPC: 0.93467 (Simulation time: 0 hr 19 min 45 sec) 
Heartbeat CPU  0 instructions:  558000001 cycles:  539792315 heartbeat IPC: 1.08273 cumulative IPC: 0.93495 (Simulation time: 0 hr 19 min 47 sec) 
Heartbeat CPU  0 instructions:  559000001 cycles:  540724043 heartbeat IPC: 1.07327 cumulative IPC: 0.93521 (Simulation time: 0 hr 19 min 49 sec) 
Heartbeat CPU  0 instructions:  560000000 cycles:  541623939 heartbeat IPC: 1.11124 cumulative IPC: 0.93553 (Simulation time: 0 hr 19 min 51 sec) 
Heartbeat CPU  0 instructions:  561000003 cycles:  542567045 heartbeat IPC: 1.06033 cumulative IPC: 0.93577 (Simulation time: 0 hr 19 min 53 sec) 
Heartbeat CPU  0 instructions:  562000001 cycles:  543504622 heartbeat IPC: 1.06658 cumulative IPC: 0.93602 (Simulation time: 0 hr 19 min 55 sec) 
Heartbeat CPU  0 instructions:  563000003 cycles:  544429189 heartbeat IPC: 1.08159 cumulative IPC: 0.93629 (Simulation time: 0 hr 19 min 57 sec) 
Heartbeat CPU  0 instructions:  564000000 cycles:  545371420 heartbeat IPC: 1.06131 cumulative IPC: 0.93653 (Simulation time: 0 hr 20 min 0 sec) 
Heartbeat CPU  0 instructions:  565000002 cycles:  546278361 heartbeat IPC: 1.10261 cumulative IPC: 0.93683 (Simulation time: 0 hr 20 min 2 sec) 
Heartbeat CPU  0 instructions:  566000002 cycles:  547215320 heartbeat IPC: 1.06728 cumulative IPC: 0.93708 (Simulation time: 0 hr 20 min 4 sec) 
Heartbeat CPU  0 instructions:  567000000 cycles:  548148874 heartbeat IPC: 1.07117 cumulative IPC: 0.93733 (Simulation time: 0 hr 20 min 6 sec) 
Heartbeat CPU  0 instructions:  568000000 cycles:  549051238 heartbeat IPC: 1.10820 cumulative IPC: 0.93764 (Simulation time: 0 hr 20 min 8 sec) 
Heartbeat CPU  0 instructions:  569000002 cycles:  550010164 heartbeat IPC: 1.04284 cumulative IPC: 0.93784 (Simulation time: 0 hr 20 min 10 sec) 
Heartbeat CPU  0 instructions:  570000001 cycles:  550919259 heartbeat IPC: 1.09999 cumulative IPC: 0.93814 (Simulation time: 0 hr 20 min 12 sec) 
Heartbeat CPU  0 instructions:  571000000 cycles:  551863047 heartbeat IPC: 1.05956 cumulative IPC: 0.93836 (Simulation time: 0 hr 20 min 14 sec) 
Heartbeat CPU  0 instructions:  572000000 cycles:  552807448 heartbeat IPC: 1.05887 cumulative IPC: 0.93859 (Simulation time: 0 hr 20 min 16 sec) 
Heartbeat CPU  0 instructions:  573000002 cycles:  553698278 heartbeat IPC: 1.12255 cumulative IPC: 0.93892 (Simulation time: 0 hr 20 min 18 sec) 
Heartbeat CPU  0 instructions:  574000002 cycles:  554660710 heartbeat IPC: 1.03903 cumulative IPC: 0.93911 (Simulation time: 0 hr 20 min 20 sec) 
Heartbeat CPU  0 instructions:  575000000 cycles:  555575098 heartbeat IPC: 1.09363 cumulative IPC: 0.93939 (Simulation time: 0 hr 20 min 22 sec) 
Heartbeat CPU  0 instructions:  576000000 cycles:  556500632 heartbeat IPC: 1.08046 cumulative IPC: 0.93964 (Simulation time: 0 hr 20 min 25 sec) 
Heartbeat CPU  0 instructions:  577000002 cycles:  557440432 heartbeat IPC: 1.06406 cumulative IPC: 0.93987 (Simulation time: 0 hr 20 min 27 sec) 
Heartbeat CPU  0 instructions:  578000002 cycles:  558348913 heartbeat IPC: 1.10074 cumulative IPC: 0.94016 (Simulation time: 0 hr 20 min 29 sec) 
Heartbeat CPU  0 instructions:  579000003 cycles:  559313760 heartbeat IPC: 1.03643 cumulative IPC: 0.94034 (Simulation time: 0 hr 20 min 31 sec) 
Heartbeat CPU  0 instructions:  580000000 cycles:  560244207 heartbeat IPC: 1.07475 cumulative IPC: 0.94059 (Simulation time: 0 hr 20 min 33 sec) 
Heartbeat CPU  0 instructions:  581000002 cycles:  561161893 heartbeat IPC: 1.08970 cumulative IPC: 0.94086 (Simulation time: 0 hr 20 min 35 sec) 
Heartbeat CPU  0 instructions:  582000003 cycles:  562114192 heartbeat IPC: 1.05009 cumulative IPC: 0.94106 (Simulation time: 0 hr 20 min 37 sec) 
Heartbeat CPU  0 instructions:  583000002 cycles:  563031738 heartbeat IPC: 1.08986 cumulative IPC: 0.94133 (Simulation time: 0 hr 20 min 39 sec) 
Heartbeat CPU  0 instructions:  584000000 cycles:  563991016 heartbeat IPC: 1.04245 cumulative IPC: 0.94152 (Simulation time: 0 hr 20 min 41 sec) 
Heartbeat CPU  0 instructions:  585000003 cycles:  564939976 heartbeat IPC: 1.05379 cumulative IPC: 0.94172 (Simulation time: 0 hr 20 min 43 sec) 
Heartbeat CPU  0 instructions:  586000000 cycles:  565827089 heartbeat IPC: 1.12725 cumulative IPC: 0.94204 (Simulation time: 0 hr 20 min 46 sec) 
Heartbeat CPU  0 instructions:  587000002 cycles:  566798345 heartbeat IPC: 1.02960 cumulative IPC: 0.94221 (Simulation time: 0 hr 20 min 48 sec) 
Heartbeat CPU  0 instructions:  588000000 cycles:  567724721 heartbeat IPC: 1.07947 cumulative IPC: 0.94245 (Simulation time: 0 hr 20 min 50 sec) 
Heartbeat CPU  0 instructions:  589000003 cycles:  568674065 heartbeat IPC: 1.05336 cumulative IPC: 0.94265 (Simulation time: 0 hr 20 min 52 sec) 
Heartbeat CPU  0 instructions:  590000001 cycles:  569648915 heartbeat IPC: 1.02580 cumulative IPC: 0.94281 (Simulation time: 0 hr 20 min 54 sec) 
Heartbeat CPU  0 instructions:  591000003 cycles:  570522611 heartbeat IPC: 1.14457 cumulative IPC: 0.94315 (Simulation time: 0 hr 20 min 56 sec) 
Heartbeat CPU  0 instructions:  592000000 cycles:  571497035 heartbeat IPC: 1.02624 cumulative IPC: 0.94330 (Simulation time: 0 hr 20 min 58 sec) 
Heartbeat CPU  0 instructions:  593000002 cycles:  572441268 heartbeat IPC: 1.05906 cumulative IPC: 0.94351 (Simulation time: 0 hr 21 min 0 sec) 
Heartbeat CPU  0 instructions:  594000003 cycles:  573384500 heartbeat IPC: 1.06019 cumulative IPC: 0.94372 (Simulation time: 0 hr 21 min 2 sec) 
Heartbeat CPU  0 instructions:  595000001 cycles:  574368220 heartbeat IPC: 1.01655 cumulative IPC: 0.94386 (Simulation time: 0 hr 21 min 4 sec) 
Heartbeat CPU  0 instructions:  596000000 cycles:  575258888 heartbeat IPC: 1.12275 cumulative IPC: 0.94416 (Simulation time: 0 hr 21 min 6 sec) 
Heartbeat CPU  0 instructions:  597000000 cycles:  576221043 heartbeat IPC: 1.03933 cumulative IPC: 0.94434 (Simulation time: 0 hr 21 min 9 sec) 
Heartbeat CPU  0 instructions:  598000001 cycles:  577172584 heartbeat IPC: 1.05093 cumulative IPC: 0.94453 (Simulation time: 0 hr 21 min 11 sec) 
Heartbeat CPU  0 instructions:  599000003 cycles:  578086839 heartbeat IPC: 1.09379 cumulative IPC: 0.94479 (Simulation time: 0 hr 21 min 13 sec) 
Heartbeat CPU  0 instructions:  600000000 cycles:  579077531 heartbeat IPC: 1.00939 cumulative IPC: 0.94491 (Simulation time: 0 hr 21 min 15 sec) 
Finished CPU 0 instructions: 500000002 cycles: 529151567 cumulative IPC: 0.94491 (Simulation time: 0 hr 21 min 15 sec) 

ChampSim completed all CPUs

[ROI Statistics]
Core_0_instructions 500000002
Core_0_cycles 529151567
Core_0_IPC 0.94491

Core_0_branch_prediction_accuracy 99.14890
Core_0_branch_MPKI 0.20164
Core_0_average_ROB_occupancy_at_mispredict 245.11204

Core_0_L1D_total_access 147434251
Core_0_L1D_total_hit 141804850
Core_0_L1D_total_miss 5629401
Core_0_L1D_loads 135490951
Core_0_L1D_load_hit 131191956
Core_0_L1D_load_miss 4298995
Core_0_L1D_RFOs 11943300
Core_0_L1D_RFO_hit 10612894
Core_0_L1D_RFO_miss 1330406
Core_0_L1D_prefetches 0
Core_0_L1D_prefetch_hit 0
Core_0_L1D_prefetch_miss 0
Core_0_L1D_writebacks 0
Core_0_L1D_writeback_hit 0
Core_0_L1D_writeback_miss 0
Core_0_L1D_prefetch_requested 0
Core_0_L1D_prefetch_dropped 0
Core_0_L1D_prefetch_issued 0
Core_0_L1D_prefetch_filled 0
Core_0_L1D_prefetch_useful 0
Core_0_L1D_prefetch_useless 0
Core_0_L1D_prefetch_late 0
Core_0_L1D_average_miss_latency 97.23139

Core_0_L1D_rq_access 199065064
Core_0_L1D_rq_forward 0
Core_0_L1D_rq_merged 62540035
Core_0_L1D_rq_to_cache 136525029
Core_0_L1D_rq_full 0

Core_0_L1D_wq_access 15945109
Core_0_L1D_wq_forward 0
Core_0_L1D_wq_merged 0
Core_0_L1D_wq_to_cache 15945109
Core_0_L1D_wq_full 1483017

Core_0_L1D_pq_access 0
Core_0_L1D_pq_forward 0
Core_0_L1D_pq_merged 0
Core_0_L1D_pq_to_cache 0
Core_0_L1D_pq_full 0

Core_0_L1D_acc_epochs 561178
Core_0_L1D_acc_level_0 561178
Core_0_L1D_acc_level_1 0
Core_0_L1D_acc_level_2 0
Core_0_L1D_acc_level_3 0
Core_0_L1D_acc_level_4 0
Core_0_L1D_acc_level_5 0
Core_0_L1D_acc_level_6 0
Core_0_L1D_acc_level_7 0
Core_0_L1D_acc_level_8 0
Core_0_L1D_acc_level_9 0

Core_0_L1I_total_access 121355169
Core_0_L1I_total_hit 121354843
Core_0_L1I_total_miss 326
Core_0_L1I_loads 121355169
Core_0_L1I_load_hit 121354843
Core_0_L1I_load_miss 326
Core_0_L1I_RFOs 0
Core_0_L1I_RFO_hit 0
Core_0_L1I_RFO_miss 0
Core_0_L1I_prefetches 0
Core_0_L1I_prefetch_hit 0
Core_0_L1I_prefetch_miss 0
Core_0_L1I_writebacks 0
Core_0_L1I_writeback_hit 0
Core_0_L1I_writeback_miss 0
Core_0_L1I_prefetch_requested 0
Core_0_L1I_prefetch_dropped 0
Core_0_L1I_prefetch_issued 0
Core_0_L1I_prefetch_filled 0
Core_0_L1I_prefetch_useful 0
Core_0_L1I_prefetch_useless 0
Core_0_L1I_prefetch_late 0
Core_0_L1I_average_miss_latency 467.95399

Core_0_L1I_rq_access 500000003
Core_0_L1I_rq_forward 0
Core_0_L1I_rq_merged 378643759
Core_0_L1I_rq_to_cache 121356244
Core_0_L1I_rq_full 0

Core_0_L1I_wq_access 0
Core_0_L1I_wq_forward 0
Core_0_L1I_wq_merged 0
Core_0_L1I_wq_to_cache 0
Core_0_L1I_wq_full 0

Core_0_L1I_pq_access 0
Core_0_L1I_pq_forward 0
Core_0_L1I_pq_merged 0
Core_0_L1I_pq_to_cache 0
Core_0_L1I_pq_full 0

Core_0_L1I_acc_epochs 561178
Core_0_L1I_acc_level_0 561178
Core_0_L1I_acc_level_1 0
Core_0_L1I_acc_level_2 0
Core_0_L1I_acc_level_3 0
Core_0_L1I_acc_level_4 0
Core_0_L1I_acc_level_5 0
Core_0_L1I_acc_level_6 0
Core_0_L1I_acc_level_7 0
Core_0_L1I_acc_level_8 0
Core_0_L1I_acc_level_9 0

Core_0_L2C_total_access 10358904
Core_0_L2C_total_hit 6315087
Core_0_L2C_total_miss 4043817
Core_0_L2C_loads 4299267
Core_0_L2C_load_hit 3967029
Core_0_L2C_load_miss 332238
Core_0_L2C_RFOs 1330207
Core_0_L2C_RFO_hit 522088
Core_0_L2C_RFO_miss 808119
Core_0_L2C_prefetches 2989201
Core_0_L2C_prefetch_hit 86874
Core_0_L2C_prefetch_miss 2902327
Core_0_L2C_writebacks 1740229
Core_0_L2C_writeback_hit 1739096
Core_0_L2C_writeback_miss 1133
Core_0_L2C_prefetch_requested 3572725
Core_0_L2C_prefetch_dropped 0
Core_0_L2C_prefetch_issued 3572725
Core_0_L2C_prefetch_filled 3352519
Core_0_L2C_prefetch_useful 3320055
Core_0_L2C_prefetch_useless 32384
Core_0_L2C_prefetch_late 10826
Core_0_L2C_average_miss_latency 698.35275

Core_0_L2C_rq_access 5629727
Core_0_L2C_rq_forward 0
Core_0_L2C_rq_merged 0
Core_0_L2C_rq_to_cache 5629474
Core_0_L2C_rq_full 0

Core_0_L2C_wq_access 1740229
Core_0_L2C_wq_forward 258
Core_0_L2C_wq_merged 0
Core_0_L2C_wq_to_cache 1740229
Core_0_L2C_wq_full 0

Core_0_L2C_pq_access 3572725
Core_0_L2C_pq_forward 0
Core_0_L2C_pq_merged 0
Core_0_L2C_pq_to_cache 3572720
Core_0_L2C_pq_full 0

Core_0_L2C_acc_epochs 561178
Core_0_L2C_acc_level_0 299053
Core_0_L2C_acc_level_1 61732
Core_0_L2C_acc_level_2 39042
Core_0_L2C_acc_level_3 24124
Core_0_L2C_acc_level_4 19190
Core_0_L2C_acc_level_5 21813
Core_0_L2C_acc_level_6 11545
Core_0_L2C_acc_level_7 10634
Core_0_L2C_acc_level_8 8938
Core_0_L2C_acc_level_9 65107

Core_0_LLC_total_access 5248276
Core_0_LLC_total_hit 1372000
Core_0_LLC_total_miss 3876276
Core_0_LLC_loads 321413
Core_0_LLC_load_hit 126021
Core_0_LLC_load_miss 195392
Core_0_LLC_RFOs 808118
Core_0_LLC_RFO_hit 125941
Core_0_LLC_RFO_miss 682177
Core_0_LLC_prefetches 3025310
Core_0_LLC_prefetch_hit 676266
Core_0_LLC_prefetch_miss 2349044
Core_0_LLC_writebacks 1093435
Core_0_LLC_writeback_hit 443772
Core_0_LLC_writeback_miss 649663
Core_0_LLC_prefetch_requested 0
Core_0_LLC_prefetch_dropped 0
Core_0_LLC_prefetch_issued 0
Core_0_LLC_prefetch_filled 2773948
Core_0_LLC_prefetch_useful 83190
Core_0_LLC_prefetch_useless 2669598
Core_0_LLC_prefetch_late 18
Core_0_LLC_average_miss_latency 717.77405

Core_0_LLC_rq_access 1129532
Core_0_LLC_rq_forward 0
Core_0_LLC_rq_merged 0
Core_0_LLC_rq_to_cache 1129531
Core_0_LLC_rq_full 0

Core_0_LLC_wq_access 1093435
Core_0_LLC_wq_forward 2
Core_0_LLC_wq_merged 0
Core_0_LLC_wq_to_cache 1093435
Core_0_LLC_wq_full 0

Core_0_LLC_pq_access 3476496
Core_0_LLC_pq_forward 0
Core_0_LLC_pq_merged 0
Core_0_LLC_pq_to_cache 3476495
Core_0_LLC_pq_full 0

Core_0_LLC_acc_epochs 565506
Core_0_LLC_acc_level_0 550850
Core_0_LLC_acc_level_1 6409
Core_0_LLC_acc_level_2 2860
Core_0_LLC_acc_level_3 1460
Core_0_LLC_acc_level_4 652
Core_0_LLC_acc_level_5 1019
Core_0_LLC_acc_level_6 351
Core_0_LLC_acc_level_7 389
Core_0_LLC_acc_level_8 184
Core_0_LLC_acc_level_9 1332

Core_0_major_page_fault 0
Core_0_minor_page_fault 14851

[Bingo] PHT Access: 142482
[Bingo] PHT Hit PC+Addr: 5584
[Bingo] PHT Hit PC+Offs: 130794
[Bingo] PHT Miss: 6104
[Bingo] Prefetch PC+Addr: 0
[Bingo] Prefetch PC+Offs: 0
[Bingo] Useful PC+Addr: 0
[Bingo] Useful PC+Offs: 0
[Bingo] Useless PC+Addr: 0
[Bingo] Useless PC+Offs: 0
[Bingo] L1 Prefetch per Region: 0.00000
[Bingo] L2 Prefetch per Region: 26.55350
[Bingo] L3 Prefetch per Region: 0.91994
[Bingo] No Prefetch per Region: 4.52656
[Bingo] Number of Voters Mean: 13.94855
[Bingo] Number of Voters SD: 4.02733

Channel_0_RQ_row_buffer_hit 1896517
Channel_0_RQ_row_buffer_miss 1330096
Channel_0_WQ_row_buffer_hit 402549
Channel_0_WQ_row_buffer_miss 508963
Channel_0_WQ_full 10065
Channel_0_dbus_congested 3515492

avg_congested_cycle 50

DRAM_bw_pochs 2262022
DRAM_bw_level_0 1608555
DRAM_bw_level_1 215296
DRAM_bw_level_2 81453
DRAM_bw_level_3 356718
