*************************************************
   ChampSim Multicore Out-of-Order Simulator
   Last compiled: Dec 11 2024 17:59:53
*************************************************
parsing config file: /home/functionmain/桌面/Pythia/config/bingo.ini

trace_0 /home/functionmain/桌面/Pythia/traces/437.leslie3d-271B.champsimtrace.xz
adding L2C_PREFETCHER: Bingo
Initialize SHIP state
warmup_instructions 100000000
simulation_instructions 500000000
champsim_seed 220
measure_ipc 0
measure_ipc_epoch 1000
measure_dram_bw 1
measure_dram_bw_epoch 256
measure_cache_acc 1
measure_cache_acc_epoch 1024
l1d_perfect 0
l2c_perfect 0
llc_perfect 0
l1d_semi_perfect 0
l2c_semi_perfect 0
llc_semi_perfect 0
semi_perfect_cache_page_buffer_size 64

num_cpus 1
cpu_freq 4000
dram_io_freq 150
page_size 4096
block_size 64
max_read_per_cycle 8
max_fill_per_cycle 1
dram_channels 1
log2_dram_channels 0
dram_ranks 1
dram_banks 8
dram_rows 65536
dram_columns 128
dram_row_size 8
dram_size 4096
dram_pages 1048576

fetch_width 6
decode_width 6
exec_width 4
lq_width 2
sq_width 2
retire_width 4
scheduler_size 128
branch_mispredict_penalty 20
rob_size 256
lq_size 72
sq_size 56
num_instr_destinations_sparc 4
num_instr_destinations 2
num_instr_sources 4

itlb_set 16
itlb_way 8
itlb_rq_size 16
itlb_wq_size 16
itlb_pq_size 0
itlb_mshr_size 8
itlb_latency 1

dtlb_set 16
dtlb_way 4
dtlb_rq_size 16
dtlb_wq_size 16
dtlb_pq_size 0
dtlb_mshr_size 8
dtlb_latency 1

stlb_set 128
stlb_way 12
stlb_rq_size 32
stlb_wq_size 32
stlb_pq_size 0
stlb_mshr_size 16
stlb_latency 8

l1i_size 32
l1i_set 64
l1i_way 8
l1i_rq_size 64
l1i_wq_size 64
l1i_pq_size 8
l1i_mshr_size 8
l1i_latency 1

l1d_size 32
l1d_set 64
l1d_way 8
l1d_rq_size 64
l1d_wq_size 64
l1d_pq_size 8
l1d_mshr_size 16
l1d_latency 4

l2c_size 256
l2c_set 512
l2c_way 8
l2c_rq_size 32
l2c_wq_size 32
l2c_pq_size 32
l2c_mshr_size 32
l2c_latency 10

llc_size 2048
llc_set 2048
llc_way 16
llc_rq_size 32
llc_wq_size 32
llc_pq_size 32
llc_mshr_size 64
llc_latency 20

dram_channel_width 8
dram_wq_size 64
dram_rq_size 64
tRP 15
tRCD 15
tCAS 12.5
dram_dbus_turn_around_time 30
dram_write_high_wm 56
dram_write_low_wm 48
min_dram_writes_per_switch 16
dram_mtps 150
dram_dbus_return_time 213

bingo_region_size 2048
bingo_pattern_len 32
bingo_pc_width 16
bingo_min_addr_width 5
bingo_max_addr_width 16
bingo_ft_size 64
bingo_at_size 128
bingo_pht_size 4096
bingo_pht_ways 16
bingo_pf_streamer_size 128
bingo_debug_level 0
bingo_l1d_thresh 1.01
bingo_l2c_thresh 0.8
bingo_llc_thresh 0.05
bingo_pc_address_fill_level L2


Heartbeat CPU  0 instructions:    1000002 cycles:     516704 heartbeat IPC: 1.93535 cumulative IPC: 1.93535 (Simulation time: 0 hr 0 min 2 sec) 
Heartbeat CPU  0 instructions:    2000001 cycles:    1031913 heartbeat IPC: 1.94096 cumulative IPC: 1.93815 (Simulation time: 0 hr 0 min 4 sec) 
Heartbeat CPU  0 instructions:    3000003 cycles:    1547048 heartbeat IPC: 1.94124 cumulative IPC: 1.93918 (Simulation time: 0 hr 0 min 6 sec) 
Heartbeat CPU  0 instructions:    4000000 cycles:    2061797 heartbeat IPC: 1.94269 cumulative IPC: 1.94006 (Simulation time: 0 hr 0 min 8 sec) 
Heartbeat CPU  0 instructions:    5000001 cycles:    2576690 heartbeat IPC: 1.94215 cumulative IPC: 1.94047 (Simulation time: 0 hr 0 min 10 sec) 
Heartbeat CPU  0 instructions:    6000001 cycles:    3091533 heartbeat IPC: 1.94234 cumulative IPC: 1.94079 (Simulation time: 0 hr 0 min 12 sec) 
Heartbeat CPU  0 instructions:    7000003 cycles:    3606756 heartbeat IPC: 1.94091 cumulative IPC: 1.94080 (Simulation time: 0 hr 0 min 14 sec) 
Heartbeat CPU  0 instructions:    8000000 cycles:    4121819 heartbeat IPC: 1.94150 cumulative IPC: 1.94089 (Simulation time: 0 hr 0 min 16 sec) 
Heartbeat CPU  0 instructions:    9000000 cycles:    4636574 heartbeat IPC: 1.94267 cumulative IPC: 1.94109 (Simulation time: 0 hr 0 min 18 sec) 
Heartbeat CPU  0 instructions:   10000003 cycles:    5151530 heartbeat IPC: 1.94192 cumulative IPC: 1.94117 (Simulation time: 0 hr 0 min 20 sec) 
Heartbeat CPU  0 instructions:   11000000 cycles:    5666523 heartbeat IPC: 1.94177 cumulative IPC: 1.94123 (Simulation time: 0 hr 0 min 22 sec) 
Heartbeat CPU  0 instructions:   12000000 cycles:    6181190 heartbeat IPC: 1.94300 cumulative IPC: 1.94137 (Simulation time: 0 hr 0 min 24 sec) 
Heartbeat CPU  0 instructions:   13000001 cycles:    6696166 heartbeat IPC: 1.94184 cumulative IPC: 1.94141 (Simulation time: 0 hr 0 min 26 sec) 
Heartbeat CPU  0 instructions:   14000002 cycles:    7211356 heartbeat IPC: 1.94103 cumulative IPC: 1.94138 (Simulation time: 0 hr 0 min 28 sec) 
Heartbeat CPU  0 instructions:   15000000 cycles:    7726190 heartbeat IPC: 1.94237 cumulative IPC: 1.94145 (Simulation time: 0 hr 0 min 30 sec) 
Heartbeat CPU  0 instructions:   16000000 cycles:    8241183 heartbeat IPC: 1.94177 cumulative IPC: 1.94147 (Simulation time: 0 hr 0 min 32 sec) 
Heartbeat CPU  0 instructions:   17000003 cycles:    8756331 heartbeat IPC: 1.94120 cumulative IPC: 1.94145 (Simulation time: 0 hr 0 min 34 sec) 
Heartbeat CPU  0 instructions:   18000002 cycles:    9270917 heartbeat IPC: 1.94331 cumulative IPC: 1.94156 (Simulation time: 0 hr 0 min 36 sec) 
Heartbeat CPU  0 instructions:   19000003 cycles:    9785902 heartbeat IPC: 1.94181 cumulative IPC: 1.94157 (Simulation time: 0 hr 0 min 38 sec) 
Heartbeat CPU  0 instructions:   20000000 cycles:   10300919 heartbeat IPC: 1.94168 cumulative IPC: 1.94157 (Simulation time: 0 hr 0 min 40 sec) 
Heartbeat CPU  0 instructions:   21000001 cycles:   10815827 heartbeat IPC: 1.94210 cumulative IPC: 1.94160 (Simulation time: 0 hr 0 min 42 sec) 
Heartbeat CPU  0 instructions:   22000000 cycles:   11330802 heartbeat IPC: 1.94184 cumulative IPC: 1.94161 (Simulation time: 0 hr 0 min 44 sec) 
Heartbeat CPU  0 instructions:   23000003 cycles:   11845919 heartbeat IPC: 1.94131 cumulative IPC: 1.94160 (Simulation time: 0 hr 0 min 46 sec) 
Heartbeat CPU  0 instructions:   24000000 cycles:   12360701 heartbeat IPC: 1.94256 cumulative IPC: 1.94164 (Simulation time: 0 hr 0 min 48 sec) 
Heartbeat CPU  0 instructions:   25000000 cycles:   12875479 heartbeat IPC: 1.94258 cumulative IPC: 1.94168 (Simulation time: 0 hr 0 min 50 sec) 
Heartbeat CPU  0 instructions:   26000003 cycles:   13390417 heartbeat IPC: 1.94199 cumulative IPC: 1.94169 (Simulation time: 0 hr 0 min 52 sec) 
Heartbeat CPU  0 instructions:   27000002 cycles:   13905233 heartbeat IPC: 1.94244 cumulative IPC: 1.94172 (Simulation time: 0 hr 0 min 54 sec) 
Heartbeat CPU  0 instructions:   28000000 cycles:   14419979 heartbeat IPC: 1.94270 cumulative IPC: 1.94175 (Simulation time: 0 hr 0 min 56 sec) 
Heartbeat CPU  0 instructions:   29000000 cycles:   14934919 heartbeat IPC: 1.94197 cumulative IPC: 1.94176 (Simulation time: 0 hr 0 min 58 sec) 
Heartbeat CPU  0 instructions:   30000002 cycles:   15449856 heartbeat IPC: 1.94199 cumulative IPC: 1.94177 (Simulation time: 0 hr 1 min 0 sec) 
Heartbeat CPU  0 instructions:   31000001 cycles:   15964535 heartbeat IPC: 1.94296 cumulative IPC: 1.94180 (Simulation time: 0 hr 1 min 2 sec) 
Heartbeat CPU  0 instructions:   32000000 cycles:   16479967 heartbeat IPC: 1.94012 cumulative IPC: 1.94175 (Simulation time: 0 hr 1 min 4 sec) 
Heartbeat CPU  0 instructions:   33000000 cycles:   16994919 heartbeat IPC: 1.94193 cumulative IPC: 1.94176 (Simulation time: 0 hr 1 min 6 sec) 
Heartbeat CPU  0 instructions:   34000001 cycles:   17509654 heartbeat IPC: 1.94275 cumulative IPC: 1.94179 (Simulation time: 0 hr 1 min 8 sec) 
Heartbeat CPU  0 instructions:   35000000 cycles:   18024729 heartbeat IPC: 1.94146 cumulative IPC: 1.94178 (Simulation time: 0 hr 1 min 10 sec) 
Heartbeat CPU  0 instructions:   36000000 cycles:   18539735 heartbeat IPC: 1.94172 cumulative IPC: 1.94178 (Simulation time: 0 hr 1 min 12 sec) 
Heartbeat CPU  0 instructions:   37000001 cycles:   19054575 heartbeat IPC: 1.94235 cumulative IPC: 1.94179 (Simulation time: 0 hr 1 min 14 sec) 
Heartbeat CPU  0 instructions:   38000000 cycles:   19569592 heartbeat IPC: 1.94168 cumulative IPC: 1.94179 (Simulation time: 0 hr 1 min 16 sec) 
Heartbeat CPU  0 instructions:   39000002 cycles:   20084718 heartbeat IPC: 1.94128 cumulative IPC: 1.94177 (Simulation time: 0 hr 1 min 18 sec) 
Heartbeat CPU  0 instructions:   40000000 cycles:   20599472 heartbeat IPC: 1.94267 cumulative IPC: 1.94180 (Simulation time: 0 hr 1 min 20 sec) 
Heartbeat CPU  0 instructions:   41000000 cycles:   21114325 heartbeat IPC: 1.94230 cumulative IPC: 1.94181 (Simulation time: 0 hr 1 min 22 sec) 
Heartbeat CPU  0 instructions:   42000000 cycles:   21629350 heartbeat IPC: 1.94165 cumulative IPC: 1.94181 (Simulation time: 0 hr 1 min 24 sec) 
Heartbeat CPU  0 instructions:   43000003 cycles:   22143988 heartbeat IPC: 1.94312 cumulative IPC: 1.94184 (Simulation time: 0 hr 1 min 26 sec) 
Heartbeat CPU  0 instructions:   44000000 cycles:   22658953 heartbeat IPC: 1.94187 cumulative IPC: 1.94184 (Simulation time: 0 hr 1 min 28 sec) 
Heartbeat CPU  0 instructions:   45000003 cycles:   23174197 heartbeat IPC: 1.94083 cumulative IPC: 1.94182 (Simulation time: 0 hr 1 min 30 sec) 
Heartbeat CPU  0 instructions:   46000001 cycles:   23689041 heartbeat IPC: 1.94233 cumulative IPC: 1.94183 (Simulation time: 0 hr 1 min 32 sec) 
Heartbeat CPU  0 instructions:   47000000 cycles:   24203910 heartbeat IPC: 1.94224 cumulative IPC: 1.94184 (Simulation time: 0 hr 1 min 35 sec) 
Heartbeat CPU  0 instructions:   48000000 cycles:   24719300 heartbeat IPC: 1.94028 cumulative IPC: 1.94180 (Simulation time: 0 hr 1 min 37 sec) 
Heartbeat CPU  0 instructions:   49000000 cycles:   25234260 heartbeat IPC: 1.94190 cumulative IPC: 1.94180 (Simulation time: 0 hr 1 min 39 sec) 
Heartbeat CPU  0 instructions:   50000000 cycles:   25749105 heartbeat IPC: 1.94233 cumulative IPC: 1.94182 (Simulation time: 0 hr 1 min 41 sec) 
Heartbeat CPU  0 instructions:   51000003 cycles:   26264128 heartbeat IPC: 1.94167 cumulative IPC: 1.94181 (Simulation time: 0 hr 1 min 43 sec) 
Heartbeat CPU  0 instructions:   52000000 cycles:   26778904 heartbeat IPC: 1.94259 cumulative IPC: 1.94183 (Simulation time: 0 hr 1 min 45 sec) 
Heartbeat CPU  0 instructions:   53000001 cycles:   27293861 heartbeat IPC: 1.94191 cumulative IPC: 1.94183 (Simulation time: 0 hr 1 min 47 sec) 
Heartbeat CPU  0 instructions:   54000003 cycles:   27808996 heartbeat IPC: 1.94124 cumulative IPC: 1.94182 (Simulation time: 0 hr 1 min 49 sec) 
Heartbeat CPU  0 instructions:   55000003 cycles:   28323808 heartbeat IPC: 1.94246 cumulative IPC: 1.94183 (Simulation time: 0 hr 1 min 51 sec) 
Heartbeat CPU  0 instructions:   56000000 cycles:   28838444 heartbeat IPC: 1.94312 cumulative IPC: 1.94185 (Simulation time: 0 hr 1 min 53 sec) 
Heartbeat CPU  0 instructions:   57000002 cycles:   29379913 heartbeat IPC: 1.84683 cumulative IPC: 1.94010 (Simulation time: 0 hr 1 min 55 sec) 
Heartbeat CPU  0 instructions:   58000001 cycles:   29927069 heartbeat IPC: 1.82763 cumulative IPC: 1.93804 (Simulation time: 0 hr 1 min 57 sec) 
Heartbeat CPU  0 instructions:   59000001 cycles:   30474179 heartbeat IPC: 1.82779 cumulative IPC: 1.93607 (Simulation time: 0 hr 1 min 59 sec) 
Heartbeat CPU  0 instructions:   60000000 cycles:   31021441 heartbeat IPC: 1.82728 cumulative IPC: 1.93415 (Simulation time: 0 hr 2 min 1 sec) 
Heartbeat CPU  0 instructions:   61000003 cycles:   31568591 heartbeat IPC: 1.82766 cumulative IPC: 1.93230 (Simulation time: 0 hr 2 min 3 sec) 
Heartbeat CPU  0 instructions:   62000003 cycles:   32115578 heartbeat IPC: 1.82820 cumulative IPC: 1.93053 (Simulation time: 0 hr 2 min 5 sec) 
Heartbeat CPU  0 instructions:   63000003 cycles:   32662728 heartbeat IPC: 1.82765 cumulative IPC: 1.92880 (Simulation time: 0 hr 2 min 7 sec) 
Heartbeat CPU  0 instructions:   64000000 cycles:   33209674 heartbeat IPC: 1.82833 cumulative IPC: 1.92715 (Simulation time: 0 hr 2 min 9 sec) 
Heartbeat CPU  0 instructions:   65000002 cycles:   33752408 heartbeat IPC: 1.84253 cumulative IPC: 1.92579 (Simulation time: 0 hr 2 min 11 sec) 
Heartbeat CPU  0 instructions:   66000002 cycles:   34283989 heartbeat IPC: 1.88118 cumulative IPC: 1.92510 (Simulation time: 0 hr 2 min 13 sec) 
Heartbeat CPU  0 instructions:   67000001 cycles:   34815949 heartbeat IPC: 1.87984 cumulative IPC: 1.92441 (Simulation time: 0 hr 2 min 15 sec) 
Heartbeat CPU  0 instructions:   68000000 cycles:   35347596 heartbeat IPC: 1.88095 cumulative IPC: 1.92375 (Simulation time: 0 hr 2 min 17 sec) 
Heartbeat CPU  0 instructions:   69000003 cycles:   35879468 heartbeat IPC: 1.88016 cumulative IPC: 1.92311 (Simulation time: 0 hr 2 min 19 sec) 
Heartbeat CPU  0 instructions:   70000000 cycles:   36411227 heartbeat IPC: 1.88055 cumulative IPC: 1.92248 (Simulation time: 0 hr 2 min 21 sec) 
Heartbeat CPU  0 instructions:   71000000 cycles:   36943028 heartbeat IPC: 1.88040 cumulative IPC: 1.92188 (Simulation time: 0 hr 2 min 23 sec) 
Heartbeat CPU  0 instructions:   72000000 cycles:   37474713 heartbeat IPC: 1.88081 cumulative IPC: 1.92130 (Simulation time: 0 hr 2 min 24 sec) 
Heartbeat CPU  0 instructions:   73000000 cycles:   38006640 heartbeat IPC: 1.87996 cumulative IPC: 1.92072 (Simulation time: 0 hr 2 min 26 sec) 
Heartbeat CPU  0 instructions:   74000001 cycles:   38537296 heartbeat IPC: 1.88446 cumulative IPC: 1.92022 (Simulation time: 0 hr 2 min 28 sec) 
Heartbeat CPU  0 instructions:   75000001 cycles:   39068895 heartbeat IPC: 1.88112 cumulative IPC: 1.91969 (Simulation time: 0 hr 2 min 30 sec) 
Heartbeat CPU  0 instructions:   76000000 cycles:   39600086 heartbeat IPC: 1.88256 cumulative IPC: 1.91919 (Simulation time: 0 hr 2 min 32 sec) 
Heartbeat CPU  0 instructions:   77000003 cycles:   40131739 heartbeat IPC: 1.88093 cumulative IPC: 1.91868 (Simulation time: 0 hr 2 min 34 sec) 
Heartbeat CPU  0 instructions:   78000002 cycles:   40662974 heartbeat IPC: 1.88240 cumulative IPC: 1.91821 (Simulation time: 0 hr 2 min 36 sec) 
Heartbeat CPU  0 instructions:   79000000 cycles:   41194576 heartbeat IPC: 1.88110 cumulative IPC: 1.91773 (Simulation time: 0 hr 2 min 38 sec) 
Heartbeat CPU  0 instructions:   80000000 cycles:   41725806 heartbeat IPC: 1.88242 cumulative IPC: 1.91728 (Simulation time: 0 hr 2 min 40 sec) 
Heartbeat CPU  0 instructions:   81000003 cycles:   42257418 heartbeat IPC: 1.88108 cumulative IPC: 1.91682 (Simulation time: 0 hr 2 min 42 sec) 
Heartbeat CPU  0 instructions:   82000003 cycles:   42788693 heartbeat IPC: 1.88226 cumulative IPC: 1.91639 (Simulation time: 0 hr 2 min 44 sec) 
Heartbeat CPU  0 instructions:   83000000 cycles:   43376728 heartbeat IPC: 1.70057 cumulative IPC: 1.91347 (Simulation time: 0 hr 2 min 46 sec) 
Heartbeat CPU  0 instructions:   84000000 cycles:   43984108 heartbeat IPC: 1.64642 cumulative IPC: 1.90978 (Simulation time: 0 hr 2 min 49 sec) 
Heartbeat CPU  0 instructions:   85000001 cycles:   44591744 heartbeat IPC: 1.64572 cumulative IPC: 1.90618 (Simulation time: 0 hr 2 min 51 sec) 
Heartbeat CPU  0 instructions:   86000001 cycles:   45199193 heartbeat IPC: 1.64623 cumulative IPC: 1.90269 (Simulation time: 0 hr 2 min 54 sec) 
Heartbeat CPU  0 instructions:   87000002 cycles:   45806740 heartbeat IPC: 1.64596 cumulative IPC: 1.89928 (Simulation time: 0 hr 2 min 56 sec) 
Heartbeat CPU  0 instructions:   88000000 cycles:   46414398 heartbeat IPC: 1.64566 cumulative IPC: 1.89596 (Simulation time: 0 hr 2 min 59 sec) 
Heartbeat CPU  0 instructions:   89000002 cycles:   47022109 heartbeat IPC: 1.64552 cumulative IPC: 1.89273 (Simulation time: 0 hr 3 min 1 sec) 
Heartbeat CPU  0 instructions:   90000003 cycles:   47629540 heartbeat IPC: 1.64628 cumulative IPC: 1.88958 (Simulation time: 0 hr 3 min 4 sec) 
Heartbeat CPU  0 instructions:   91000000 cycles:   48237060 heartbeat IPC: 1.64603 cumulative IPC: 1.88652 (Simulation time: 0 hr 3 min 6 sec) 
Heartbeat CPU  0 instructions:   92000000 cycles:   48844510 heartbeat IPC: 1.64623 cumulative IPC: 1.88353 (Simulation time: 0 hr 3 min 9 sec) 
Heartbeat CPU  0 instructions:   93000000 cycles:   49452113 heartbeat IPC: 1.64581 cumulative IPC: 1.88061 (Simulation time: 0 hr 3 min 11 sec) 
Heartbeat CPU  0 instructions:   94000001 cycles:   50059568 heartbeat IPC: 1.64621 cumulative IPC: 1.87776 (Simulation time: 0 hr 3 min 13 sec) 
Heartbeat CPU  0 instructions:   95000003 cycles:   50667004 heartbeat IPC: 1.64627 cumulative IPC: 1.87499 (Simulation time: 0 hr 3 min 16 sec) 
Heartbeat CPU  0 instructions:   96000000 cycles:   51274653 heartbeat IPC: 1.64568 cumulative IPC: 1.87227 (Simulation time: 0 hr 3 min 18 sec) 
Heartbeat CPU  0 instructions:   97000000 cycles:   51882369 heartbeat IPC: 1.64551 cumulative IPC: 1.86961 (Simulation time: 0 hr 3 min 21 sec) 
Heartbeat CPU  0 instructions:   98000002 cycles:   52489929 heartbeat IPC: 1.64593 cumulative IPC: 1.86702 (Simulation time: 0 hr 3 min 23 sec) 
Heartbeat CPU  0 instructions:   99000003 cycles:   53097480 heartbeat IPC: 1.64595 cumulative IPC: 1.86450 (Simulation time: 0 hr 3 min 26 sec) 
Heartbeat CPU  0 instructions:  100000000 cycles:   53704889 heartbeat IPC: 1.64633 cumulative IPC: 1.86203 (Simulation time: 0 hr 3 min 28 sec) 

Warmup complete CPU  0 instructions:  100000002 cycles:   53704890 (Simulation time: 0 hr 3 min 28 sec) 

Heartbeat CPU  0 instructions:  101000003 cycles:   56296205 heartbeat IPC: 0.38591 cumulative IPC: 0.38590 (Simulation time: 0 hr 3 min 32 sec) 
Heartbeat CPU  0 instructions:  102000000 cycles:   58895526 heartbeat IPC: 0.38471 cumulative IPC: 0.38531 (Simulation time: 0 hr 3 min 35 sec) 
Heartbeat CPU  0 instructions:  103000000 cycles:   61443703 heartbeat IPC: 0.39244 cumulative IPC: 0.38766 (Simulation time: 0 hr 3 min 39 sec) 
Heartbeat CPU  0 instructions:  104000000 cycles:   64081564 heartbeat IPC: 0.37910 cumulative IPC: 0.38548 (Simulation time: 0 hr 3 min 43 sec) 
Heartbeat CPU  0 instructions:  105000001 cycles:   66632304 heartbeat IPC: 0.39204 cumulative IPC: 0.38677 (Simulation time: 0 hr 3 min 47 sec) 
Heartbeat CPU  0 instructions:  106000001 cycles:   69296058 heartbeat IPC: 0.37541 cumulative IPC: 0.38483 (Simulation time: 0 hr 3 min 50 sec) 
Heartbeat CPU  0 instructions:  107000002 cycles:   71859622 heartbeat IPC: 0.39008 cumulative IPC: 0.38557 (Simulation time: 0 hr 3 min 54 sec) 
Heartbeat CPU  0 instructions:  108000000 cycles:   74525212 heartbeat IPC: 0.37515 cumulative IPC: 0.38424 (Simulation time: 0 hr 3 min 58 sec) 
Heartbeat CPU  0 instructions:  109000002 cycles:   77147031 heartbeat IPC: 0.38142 cumulative IPC: 0.38392 (Simulation time: 0 hr 4 min 2 sec) 
Heartbeat CPU  0 instructions:  110000003 cycles:   79771785 heartbeat IPC: 0.38099 cumulative IPC: 0.38363 (Simulation time: 0 hr 4 min 5 sec) 
Heartbeat CPU  0 instructions:  111000000 cycles:   82400814 heartbeat IPC: 0.38037 cumulative IPC: 0.38333 (Simulation time: 0 hr 4 min 9 sec) 
Heartbeat CPU  0 instructions:  112000000 cycles:   85036826 heartbeat IPC: 0.37936 cumulative IPC: 0.38300 (Simulation time: 0 hr 4 min 13 sec) 
Heartbeat CPU  0 instructions:  113000000 cycles:   87666727 heartbeat IPC: 0.38024 cumulative IPC: 0.38278 (Simulation time: 0 hr 4 min 17 sec) 
Heartbeat CPU  0 instructions:  114000001 cycles:   90312912 heartbeat IPC: 0.37790 cumulative IPC: 0.38243 (Simulation time: 0 hr 4 min 20 sec) 
Heartbeat CPU  0 instructions:  115000002 cycles:   92900287 heartbeat IPC: 0.38649 cumulative IPC: 0.38270 (Simulation time: 0 hr 4 min 24 sec) 
Heartbeat CPU  0 instructions:  116000000 cycles:   95567383 heartbeat IPC: 0.37494 cumulative IPC: 0.38220 (Simulation time: 0 hr 4 min 28 sec) 
Heartbeat CPU  0 instructions:  117000001 cycles:   98204486 heartbeat IPC: 0.37920 cumulative IPC: 0.38203 (Simulation time: 0 hr 4 min 32 sec) 
Heartbeat CPU  0 instructions:  118000002 cycles:  100820765 heartbeat IPC: 0.38222 cumulative IPC: 0.38204 (Simulation time: 0 hr 4 min 35 sec) 
Heartbeat CPU  0 instructions:  119000003 cycles:  103447970 heartbeat IPC: 0.38063 cumulative IPC: 0.38196 (Simulation time: 0 hr 4 min 39 sec) 
Heartbeat CPU  0 instructions:  120000000 cycles:  106095226 heartbeat IPC: 0.37775 cumulative IPC: 0.38175 (Simulation time: 0 hr 4 min 43 sec) 
Heartbeat CPU  0 instructions:  121000003 cycles:  108728764 heartbeat IPC: 0.37972 cumulative IPC: 0.38165 (Simulation time: 0 hr 4 min 46 sec) 
Heartbeat CPU  0 instructions:  122000002 cycles:  110993873 heartbeat IPC: 0.44148 cumulative IPC: 0.38402 (Simulation time: 0 hr 4 min 50 sec) 
Heartbeat CPU  0 instructions:  123000002 cycles:  112611631 heartbeat IPC: 0.61814 cumulative IPC: 0.39045 (Simulation time: 0 hr 4 min 53 sec) 
Heartbeat CPU  0 instructions:  124000000 cycles:  114352330 heartbeat IPC: 0.57448 cumulative IPC: 0.39573 (Simulation time: 0 hr 4 min 56 sec) 
Heartbeat CPU  0 instructions:  125000000 cycles:  116129915 heartbeat IPC: 0.56256 cumulative IPC: 0.40048 (Simulation time: 0 hr 4 min 59 sec) 
Heartbeat CPU  0 instructions:  126000001 cycles:  117629548 heartbeat IPC: 0.66683 cumulative IPC: 0.40673 (Simulation time: 0 hr 5 min 2 sec) 
Heartbeat CPU  0 instructions:  127000002 cycles:  119242843 heartbeat IPC: 0.61985 cumulative IPC: 0.41198 (Simulation time: 0 hr 5 min 5 sec) 
Heartbeat CPU  0 instructions:  128000000 cycles:  120828142 heartbeat IPC: 0.63079 cumulative IPC: 0.41714 (Simulation time: 0 hr 5 min 8 sec) 
Heartbeat CPU  0 instructions:  129000003 cycles:  122497196 heartbeat IPC: 0.59914 cumulative IPC: 0.42156 (Simulation time: 0 hr 5 min 11 sec) 
Heartbeat CPU  0 instructions:  130000003 cycles:  124207214 heartbeat IPC: 0.58479 cumulative IPC: 0.42552 (Simulation time: 0 hr 5 min 14 sec) 
Heartbeat CPU  0 instructions:  131000000 cycles:  125756172 heartbeat IPC: 0.64559 cumulative IPC: 0.43025 (Simulation time: 0 hr 5 min 17 sec) 
Heartbeat CPU  0 instructions:  132000000 cycles:  127106432 heartbeat IPC: 0.74060 cumulative IPC: 0.43596 (Simulation time: 0 hr 5 min 20 sec) 
Heartbeat CPU  0 instructions:  133000002 cycles:  128704549 heartbeat IPC: 0.62574 cumulative IPC: 0.44000 (Simulation time: 0 hr 5 min 23 sec) 
Heartbeat CPU  0 instructions:  134000002 cycles:  130251050 heartbeat IPC: 0.64662 cumulative IPC: 0.44418 (Simulation time: 0 hr 5 min 26 sec) 
Heartbeat CPU  0 instructions:  135000000 cycles:  131890340 heartbeat IPC: 0.61002 cumulative IPC: 0.44765 (Simulation time: 0 hr 5 min 29 sec) 
Heartbeat CPU  0 instructions:  136000000 cycles:  133419222 heartbeat IPC: 0.65407 cumulative IPC: 0.45161 (Simulation time: 0 hr 5 min 32 sec) 
Heartbeat CPU  0 instructions:  137000000 cycles:  134931938 heartbeat IPC: 0.66106 cumulative IPC: 0.45551 (Simulation time: 0 hr 5 min 35 sec) 
Heartbeat CPU  0 instructions:  138000003 cycles:  136586038 heartbeat IPC: 0.60456 cumulative IPC: 0.45849 (Simulation time: 0 hr 5 min 38 sec) 
Heartbeat CPU  0 instructions:  139000000 cycles:  138199301 heartbeat IPC: 0.61986 cumulative IPC: 0.46157 (Simulation time: 0 hr 5 min 41 sec) 
Heartbeat CPU  0 instructions:  140000000 cycles:  139861648 heartbeat IPC: 0.60156 cumulative IPC: 0.46427 (Simulation time: 0 hr 5 min 44 sec) 
Heartbeat CPU  0 instructions:  141000000 cycles:  141522767 heartbeat IPC: 0.60200 cumulative IPC: 0.46688 (Simulation time: 0 hr 5 min 47 sec) 
Heartbeat CPU  0 instructions:  142000000 cycles:  142968753 heartbeat IPC: 0.69157 cumulative IPC: 0.47052 (Simulation time: 0 hr 5 min 50 sec) 
Heartbeat CPU  0 instructions:  143000001 cycles:  144643196 heartbeat IPC: 0.59721 cumulative IPC: 0.47285 (Simulation time: 0 hr 5 min 53 sec) 
Heartbeat CPU  0 instructions:  144000000 cycles:  146204437 heartbeat IPC: 0.64052 cumulative IPC: 0.47568 (Simulation time: 0 hr 5 min 56 sec) 
Heartbeat CPU  0 instructions:  145000003 cycles:  147765264 heartbeat IPC: 0.64069 cumulative IPC: 0.47842 (Simulation time: 0 hr 5 min 59 sec) 
Heartbeat CPU  0 instructions:  146000001 cycles:  149419684 heartbeat IPC: 0.60444 cumulative IPC: 0.48059 (Simulation time: 0 hr 6 min 2 sec) 
Heartbeat CPU  0 instructions:  147000002 cycles:  150944935 heartbeat IPC: 0.65563 cumulative IPC: 0.48334 (Simulation time: 0 hr 6 min 5 sec) 
Heartbeat CPU  0 instructions:  148000000 cycles:  152462696 heartbeat IPC: 0.65886 cumulative IPC: 0.48604 (Simulation time: 0 hr 6 min 7 sec) 
Heartbeat CPU  0 instructions:  149000000 cycles:  154107474 heartbeat IPC: 0.60798 cumulative IPC: 0.48804 (Simulation time: 0 hr 6 min 11 sec) 
Heartbeat CPU  0 instructions:  150000003 cycles:  155763978 heartbeat IPC: 0.60368 cumulative IPC: 0.48991 (Simulation time: 0 hr 6 min 14 sec) 
Heartbeat CPU  0 instructions:  151000001 cycles:  157360963 heartbeat IPC: 0.62618 cumulative IPC: 0.49201 (Simulation time: 0 hr 6 min 16 sec) 
Heartbeat CPU  0 instructions:  152000000 cycles:  159014285 heartbeat IPC: 0.60484 cumulative IPC: 0.49378 (Simulation time: 0 hr 6 min 19 sec) 
Heartbeat CPU  0 instructions:  153000001 cycles:  160409200 heartbeat IPC: 0.71689 cumulative IPC: 0.49670 (Simulation time: 0 hr 6 min 22 sec) 
Heartbeat CPU  0 instructions:  154000003 cycles:  162027834 heartbeat IPC: 0.61781 cumulative IPC: 0.49851 (Simulation time: 0 hr 6 min 25 sec) 
Heartbeat CPU  0 instructions:  155000003 cycles:  163647062 heartbeat IPC: 0.61758 cumulative IPC: 0.50026 (Simulation time: 0 hr 6 min 28 sec) 
Heartbeat CPU  0 instructions:  156000000 cycles:  165232399 heartbeat IPC: 0.63078 cumulative IPC: 0.50212 (Simulation time: 0 hr 6 min 31 sec) 
Heartbeat CPU  0 instructions:  157000000 cycles:  166852081 heartbeat IPC: 0.61741 cumulative IPC: 0.50377 (Simulation time: 0 hr 6 min 34 sec) 
Heartbeat CPU  0 instructions:  158000002 cycles:  168444148 heartbeat IPC: 0.62812 cumulative IPC: 0.50549 (Simulation time: 0 hr 6 min 37 sec) 
Heartbeat CPU  0 instructions:  159000002 cycles:  170000344 heartbeat IPC: 0.64259 cumulative IPC: 0.50733 (Simulation time: 0 hr 6 min 40 sec) 
Heartbeat CPU  0 instructions:  160000000 cycles:  171642923 heartbeat IPC: 0.60880 cumulative IPC: 0.50874 (Simulation time: 0 hr 6 min 43 sec) 
Heartbeat CPU  0 instructions:  161000003 cycles:  173314776 heartbeat IPC: 0.59814 cumulative IPC: 0.50999 (Simulation time: 0 hr 6 min 46 sec) 
Heartbeat CPU  0 instructions:  162000000 cycles:  174879310 heartbeat IPC: 0.63917 cumulative IPC: 0.51166 (Simulation time: 0 hr 6 min 49 sec) 
Heartbeat CPU  0 instructions:  163000001 cycles:  176493197 heartbeat IPC: 0.61962 cumulative IPC: 0.51308 (Simulation time: 0 hr 6 min 52 sec) 
Heartbeat CPU  0 instructions:  164000000 cycles:  178036418 heartbeat IPC: 0.64799 cumulative IPC: 0.51475 (Simulation time: 0 hr 6 min 55 sec) 
Heartbeat CPU  0 instructions:  165000001 cycles:  179627223 heartbeat IPC: 0.62861 cumulative IPC: 0.51619 (Simulation time: 0 hr 6 min 58 sec) 
Heartbeat CPU  0 instructions:  166000003 cycles:  181322763 heartbeat IPC: 0.58978 cumulative IPC: 0.51717 (Simulation time: 0 hr 7 min 1 sec) 
Heartbeat CPU  0 instructions:  167000001 cycles:  182952162 heartbeat IPC: 0.61372 cumulative IPC: 0.51839 (Simulation time: 0 hr 7 min 4 sec) 
Heartbeat CPU  0 instructions:  168000000 cycles:  184495350 heartbeat IPC: 0.64801 cumulative IPC: 0.51992 (Simulation time: 0 hr 7 min 7 sec) 
Heartbeat CPU  0 instructions:  169000001 cycles:  186106649 heartbeat IPC: 0.62062 cumulative IPC: 0.52114 (Simulation time: 0 hr 7 min 10 sec) 
Heartbeat CPU  0 instructions:  170000000 cycles:  187625638 heartbeat IPC: 0.65833 cumulative IPC: 0.52270 (Simulation time: 0 hr 7 min 13 sec) 
Heartbeat CPU  0 instructions:  171000000 cycles:  189268429 heartbeat IPC: 0.60872 cumulative IPC: 0.52374 (Simulation time: 0 hr 7 min 16 sec) 
Heartbeat CPU  0 instructions:  172000000 cycles:  191029830 heartbeat IPC: 0.56773 cumulative IPC: 0.52430 (Simulation time: 0 hr 7 min 19 sec) 
Heartbeat CPU  0 instructions:  173000002 cycles:  192725402 heartbeat IPC: 0.58977 cumulative IPC: 0.52510 (Simulation time: 0 hr 7 min 22 sec) 
Heartbeat CPU  0 instructions:  174000002 cycles:  194381379 heartbeat IPC: 0.60387 cumulative IPC: 0.52603 (Simulation time: 0 hr 7 min 25 sec) 
Heartbeat CPU  0 instructions:  175000000 cycles:  196014112 heartbeat IPC: 0.61247 cumulative IPC: 0.52702 (Simulation time: 0 hr 7 min 28 sec) 
Heartbeat CPU  0 instructions:  176000000 cycles:  197626775 heartbeat IPC: 0.62009 cumulative IPC: 0.52806 (Simulation time: 0 hr 7 min 31 sec) 
Heartbeat CPU  0 instructions:  177000001 cycles:  199316927 heartbeat IPC: 0.59166 cumulative IPC: 0.52880 (Simulation time: 0 hr 7 min 34 sec) 
Heartbeat CPU  0 instructions:  178000002 cycles:  200970157 heartbeat IPC: 0.60488 cumulative IPC: 0.52966 (Simulation time: 0 hr 7 min 37 sec) 
Heartbeat CPU  0 instructions:  179000001 cycles:  202511410 heartbeat IPC: 0.64882 cumulative IPC: 0.53089 (Simulation time: 0 hr 7 min 40 sec) 
Heartbeat CPU  0 instructions:  180000000 cycles:  204161359 heartbeat IPC: 0.60608 cumulative IPC: 0.53172 (Simulation time: 0 hr 7 min 43 sec) 
Heartbeat CPU  0 instructions:  181000000 cycles:  205682615 heartbeat IPC: 0.65735 cumulative IPC: 0.53297 (Simulation time: 0 hr 7 min 46 sec) 
Heartbeat CPU  0 instructions:  182000000 cycles:  207351426 heartbeat IPC: 0.59923 cumulative IPC: 0.53369 (Simulation time: 0 hr 7 min 49 sec) 
Heartbeat CPU  0 instructions:  183000003 cycles:  209091674 heartbeat IPC: 0.57463 cumulative IPC: 0.53415 (Simulation time: 0 hr 7 min 52 sec) 
Heartbeat CPU  0 instructions:  184000000 cycles:  210736945 heartbeat IPC: 0.60780 cumulative IPC: 0.53492 (Simulation time: 0 hr 7 min 55 sec) 
Heartbeat CPU  0 instructions:  185000002 cycles:  212333905 heartbeat IPC: 0.62619 cumulative IPC: 0.53584 (Simulation time: 0 hr 7 min 58 sec) 
Heartbeat CPU  0 instructions:  186000003 cycles:  213895535 heartbeat IPC: 0.64036 cumulative IPC: 0.53686 (Simulation time: 0 hr 8 min 1 sec) 
Heartbeat CPU  0 instructions:  187000001 cycles:  215503708 heartbeat IPC: 0.62182 cumulative IPC: 0.53770 (Simulation time: 0 hr 8 min 4 sec) 
Heartbeat CPU  0 instructions:  188000000 cycles:  217184472 heartbeat IPC: 0.59497 cumulative IPC: 0.53829 (Simulation time: 0 hr 8 min 7 sec) 
Heartbeat CPU  0 instructions:  189000001 cycles:  218846176 heartbeat IPC: 0.60179 cumulative IPC: 0.53893 (Simulation time: 0 hr 8 min 10 sec) 
Heartbeat CPU  0 instructions:  190000003 cycles:  220331843 heartbeat IPC: 0.67310 cumulative IPC: 0.54013 (Simulation time: 0 hr 8 min 13 sec) 
Heartbeat CPU  0 instructions:  191000001 cycles:  222002710 heartbeat IPC: 0.59849 cumulative IPC: 0.54071 (Simulation time: 0 hr 8 min 16 sec) 
Heartbeat CPU  0 instructions:  192000000 cycles:  223505748 heartbeat IPC: 0.66532 cumulative IPC: 0.54181 (Simulation time: 0 hr 8 min 19 sec) 
Heartbeat CPU  0 instructions:  193000000 cycles:  225155888 heartbeat IPC: 0.60601 cumulative IPC: 0.54243 (Simulation time: 0 hr 8 min 22 sec) 
Heartbeat CPU  0 instructions:  194000003 cycles:  226931620 heartbeat IPC: 0.56315 cumulative IPC: 0.54264 (Simulation time: 0 hr 8 min 26 sec) 
Heartbeat CPU  0 instructions:  195000002 cycles:  228402927 heartbeat IPC: 0.67967 cumulative IPC: 0.54380 (Simulation time: 0 hr 8 min 28 sec) 
Heartbeat CPU  0 instructions:  196000000 cycles:  230017269 heartbeat IPC: 0.61945 cumulative IPC: 0.54449 (Simulation time: 0 hr 8 min 32 sec) 
Heartbeat CPU  0 instructions:  197000000 cycles:  231657221 heartbeat IPC: 0.60977 cumulative IPC: 0.54509 (Simulation time: 0 hr 8 min 35 sec) 
Heartbeat CPU  0 instructions:  198000001 cycles:  233195518 heartbeat IPC: 0.65007 cumulative IPC: 0.54599 (Simulation time: 0 hr 8 min 37 sec) 
Heartbeat CPU  0 instructions:  199000003 cycles:  234863245 heartbeat IPC: 0.59962 cumulative IPC: 0.54648 (Simulation time: 0 hr 8 min 40 sec) 
Heartbeat CPU  0 instructions:  200000000 cycles:  236423612 heartbeat IPC: 0.64087 cumulative IPC: 0.54729 (Simulation time: 0 hr 8 min 43 sec) 
Heartbeat CPU  0 instructions:  201000002 cycles:  237973468 heartbeat IPC: 0.64522 cumulative IPC: 0.54811 (Simulation time: 0 hr 8 min 46 sec) 
Heartbeat CPU  0 instructions:  202000000 cycles:  239653547 heartbeat IPC: 0.59521 cumulative IPC: 0.54854 (Simulation time: 0 hr 8 min 49 sec) 
Heartbeat CPU  0 instructions:  203000000 cycles:  241180963 heartbeat IPC: 0.65470 cumulative IPC: 0.54940 (Simulation time: 0 hr 8 min 52 sec) 
Heartbeat CPU  0 instructions:  204000000 cycles:  242821234 heartbeat IPC: 0.60966 cumulative IPC: 0.54993 (Simulation time: 0 hr 8 min 56 sec) 
Heartbeat CPU  0 instructions:  205000000 cycles:  244593417 heartbeat IPC: 0.56428 cumulative IPC: 0.55006 (Simulation time: 0 hr 8 min 59 sec) 
Heartbeat CPU  0 instructions:  206000003 cycles:  246117765 heartbeat IPC: 0.65602 cumulative IPC: 0.55090 (Simulation time: 0 hr 9 min 2 sec) 
Heartbeat CPU  0 instructions:  207000003 cycles:  247788151 heartbeat IPC: 0.59866 cumulative IPC: 0.55131 (Simulation time: 0 hr 9 min 5 sec) 
Heartbeat CPU  0 instructions:  208000000 cycles:  249517463 heartbeat IPC: 0.57826 cumulative IPC: 0.55155 (Simulation time: 0 hr 9 min 8 sec) 
Heartbeat CPU  0 instructions:  209000000 cycles:  251140390 heartbeat IPC: 0.61617 cumulative IPC: 0.55208 (Simulation time: 0 hr 9 min 11 sec) 
Heartbeat CPU  0 instructions:  210000003 cycles:  252778723 heartbeat IPC: 0.61038 cumulative IPC: 0.55256 (Simulation time: 0 hr 9 min 14 sec) 
Heartbeat CPU  0 instructions:  211000002 cycles:  254375805 heartbeat IPC: 0.62614 cumulative IPC: 0.55314 (Simulation time: 0 hr 9 min 17 sec) 
Heartbeat CPU  0 instructions:  212000000 cycles:  255930524 heartbeat IPC: 0.64320 cumulative IPC: 0.55384 (Simulation time: 0 hr 9 min 20 sec) 
Heartbeat CPU  0 instructions:  213000002 cycles:  257627822 heartbeat IPC: 0.58917 cumulative IPC: 0.55413 (Simulation time: 0 hr 9 min 23 sec) 
Heartbeat CPU  0 instructions:  214000001 cycles:  259239159 heartbeat IPC: 0.62060 cumulative IPC: 0.55465 (Simulation time: 0 hr 9 min 26 sec) 
Heartbeat CPU  0 instructions:  215000000 cycles:  261067718 heartbeat IPC: 0.54688 cumulative IPC: 0.55458 (Simulation time: 0 hr 9 min 29 sec) 
Heartbeat CPU  0 instructions:  216000000 cycles:  262622695 heartbeat IPC: 0.64310 cumulative IPC: 0.55524 (Simulation time: 0 hr 9 min 32 sec) 
Heartbeat CPU  0 instructions:  217000002 cycles:  264207709 heartbeat IPC: 0.63091 cumulative IPC: 0.55581 (Simulation time: 0 hr 9 min 35 sec) 
Heartbeat CPU  0 instructions:  218000000 cycles:  265915784 heartbeat IPC: 0.58545 cumulative IPC: 0.55605 (Simulation time: 0 hr 9 min 38 sec) 
Heartbeat CPU  0 instructions:  219000002 cycles:  267576166 heartbeat IPC: 0.60227 cumulative IPC: 0.55641 (Simulation time: 0 hr 9 min 41 sec) 
Heartbeat CPU  0 instructions:  220000000 cycles:  269135646 heartbeat IPC: 0.64124 cumulative IPC: 0.55702 (Simulation time: 0 hr 9 min 44 sec) 
Heartbeat CPU  0 instructions:  221000002 cycles:  270761517 heartbeat IPC: 0.61506 cumulative IPC: 0.55746 (Simulation time: 0 hr 9 min 47 sec) 
Heartbeat CPU  0 instructions:  222000000 cycles:  272312466 heartbeat IPC: 0.64477 cumulative IPC: 0.55808 (Simulation time: 0 hr 9 min 50 sec) 
Heartbeat CPU  0 instructions:  223000002 cycles:  273932961 heartbeat IPC: 0.61710 cumulative IPC: 0.55851 (Simulation time: 0 hr 9 min 53 sec) 
Heartbeat CPU  0 instructions:  224000000 cycles:  275568349 heartbeat IPC: 0.61147 cumulative IPC: 0.55890 (Simulation time: 0 hr 9 min 56 sec) 
Heartbeat CPU  0 instructions:  225000000 cycles:  277293181 heartbeat IPC: 0.57977 cumulative IPC: 0.55906 (Simulation time: 0 hr 9 min 59 sec) 
Heartbeat CPU  0 instructions:  226000000 cycles:  278799641 heartbeat IPC: 0.66381 cumulative IPC: 0.55976 (Simulation time: 0 hr 10 min 2 sec) 
Heartbeat CPU  0 instructions:  227000001 cycles:  280380995 heartbeat IPC: 0.63237 cumulative IPC: 0.56027 (Simulation time: 0 hr 10 min 5 sec) 
Heartbeat CPU  0 instructions:  228000000 cycles:  281935167 heartbeat IPC: 0.64343 cumulative IPC: 0.56084 (Simulation time: 0 hr 10 min 7 sec) 
Heartbeat CPU  0 instructions:  229000001 cycles:  283536696 heartbeat IPC: 0.62440 cumulative IPC: 0.56128 (Simulation time: 0 hr 10 min 10 sec) 
Heartbeat CPU  0 instructions:  230000001 cycles:  285192371 heartbeat IPC: 0.60398 cumulative IPC: 0.56159 (Simulation time: 0 hr 10 min 13 sec) 
Heartbeat CPU  0 instructions:  231000002 cycles:  286820615 heartbeat IPC: 0.61416 cumulative IPC: 0.56195 (Simulation time: 0 hr 10 min 16 sec) 
Heartbeat CPU  0 instructions:  232000000 cycles:  288399622 heartbeat IPC: 0.63331 cumulative IPC: 0.56243 (Simulation time: 0 hr 10 min 19 sec) 
Heartbeat CPU  0 instructions:  233000000 cycles:  289983827 heartbeat IPC: 0.63123 cumulative IPC: 0.56289 (Simulation time: 0 hr 10 min 22 sec) 
Heartbeat CPU  0 instructions:  234000001 cycles:  291570309 heartbeat IPC: 0.63033 cumulative IPC: 0.56334 (Simulation time: 0 hr 10 min 25 sec) 
Heartbeat CPU  0 instructions:  235000001 cycles:  293233415 heartbeat IPC: 0.60128 cumulative IPC: 0.56361 (Simulation time: 0 hr 10 min 29 sec) 
Heartbeat CPU  0 instructions:  236000000 cycles:  295017105 heartbeat IPC: 0.56063 cumulative IPC: 0.56359 (Simulation time: 0 hr 10 min 32 sec) 
Heartbeat CPU  0 instructions:  237000000 cycles:  296543030 heartbeat IPC: 0.65534 cumulative IPC: 0.56416 (Simulation time: 0 hr 10 min 35 sec) 
Heartbeat CPU  0 instructions:  238000000 cycles:  298153944 heartbeat IPC: 0.62077 cumulative IPC: 0.56453 (Simulation time: 0 hr 10 min 38 sec) 
Heartbeat CPU  0 instructions:  239000003 cycles:  299672789 heartbeat IPC: 0.65840 cumulative IPC: 0.56511 (Simulation time: 0 hr 10 min 41 sec) 
Heartbeat CPU  0 instructions:  240000000 cycles:  301283567 heartbeat IPC: 0.62082 cumulative IPC: 0.56548 (Simulation time: 0 hr 10 min 44 sec) 
Heartbeat CPU  0 instructions:  241000001 cycles:  302950291 heartbeat IPC: 0.59998 cumulative IPC: 0.56571 (Simulation time: 0 hr 10 min 47 sec) 
Heartbeat CPU  0 instructions:  242000001 cycles:  304532596 heartbeat IPC: 0.63199 cumulative IPC: 0.56613 (Simulation time: 0 hr 10 min 50 sec) 
Heartbeat CPU  0 instructions:  243000001 cycles:  306057229 heartbeat IPC: 0.65590 cumulative IPC: 0.56667 (Simulation time: 0 hr 10 min 52 sec) 
Heartbeat CPU  0 instructions:  244000000 cycles:  307690631 heartbeat IPC: 0.61222 cumulative IPC: 0.56696 (Simulation time: 0 hr 10 min 56 sec) 
Heartbeat CPU  0 instructions:  245000002 cycles:  309276276 heartbeat IPC: 0.63066 cumulative IPC: 0.56736 (Simulation time: 0 hr 10 min 59 sec) 
Heartbeat CPU  0 instructions:  246000003 cycles:  311034050 heartbeat IPC: 0.56890 cumulative IPC: 0.56737 (Simulation time: 0 hr 11 min 2 sec) 
Heartbeat CPU  0 instructions:  247000003 cycles:  312634695 heartbeat IPC: 0.62475 cumulative IPC: 0.56772 (Simulation time: 0 hr 11 min 5 sec) 
Heartbeat CPU  0 instructions:  248000000 cycles:  314127879 heartbeat IPC: 0.66971 cumulative IPC: 0.56831 (Simulation time: 0 hr 11 min 8 sec) 
Heartbeat CPU  0 instructions:  249000003 cycles:  315732049 heartbeat IPC: 0.62338 cumulative IPC: 0.56864 (Simulation time: 0 hr 11 min 11 sec) 
Heartbeat CPU  0 instructions:  250000003 cycles:  317299764 heartbeat IPC: 0.63787 cumulative IPC: 0.56906 (Simulation time: 0 hr 11 min 14 sec) 
Heartbeat CPU  0 instructions:  251000003 cycles:  318920511 heartbeat IPC: 0.61700 cumulative IPC: 0.56935 (Simulation time: 0 hr 11 min 17 sec) 
Heartbeat CPU  0 instructions:  252000000 cycles:  320562365 heartbeat IPC: 0.60907 cumulative IPC: 0.56959 (Simulation time: 0 hr 11 min 20 sec) 
Heartbeat CPU  0 instructions:  253000001 cycles:  322205132 heartbeat IPC: 0.60873 cumulative IPC: 0.56983 (Simulation time: 0 hr 11 min 23 sec) 
Heartbeat CPU  0 instructions:  254000000 cycles:  323710929 heartbeat IPC: 0.66410 cumulative IPC: 0.57036 (Simulation time: 0 hr 11 min 26 sec) 
Heartbeat CPU  0 instructions:  255000002 cycles:  325360094 heartbeat IPC: 0.60637 cumulative IPC: 0.57058 (Simulation time: 0 hr 11 min 29 sec) 
Heartbeat CPU  0 instructions:  256000000 cycles:  326868931 heartbeat IPC: 0.66276 cumulative IPC: 0.57109 (Simulation time: 0 hr 11 min 32 sec) 
Heartbeat CPU  0 instructions:  257000002 cycles:  328601837 heartbeat IPC: 0.57707 cumulative IPC: 0.57112 (Simulation time: 0 hr 11 min 35 sec) 
Heartbeat CPU  0 instructions:  258000003 cycles:  330193810 heartbeat IPC: 0.62815 cumulative IPC: 0.57145 (Simulation time: 0 hr 11 min 38 sec) 
Heartbeat CPU  0 instructions:  259000002 cycles:  331703367 heartbeat IPC: 0.66245 cumulative IPC: 0.57195 (Simulation time: 0 hr 11 min 41 sec) 
Heartbeat CPU  0 instructions:  260000000 cycles:  333352331 heartbeat IPC: 0.60644 cumulative IPC: 0.57215 (Simulation time: 0 hr 11 min 44 sec) 
Heartbeat CPU  0 instructions:  261000001 cycles:  334938125 heartbeat IPC: 0.63060 cumulative IPC: 0.57248 (Simulation time: 0 hr 11 min 47 sec) 
Heartbeat CPU  0 instructions:  262000000 cycles:  336549973 heartbeat IPC: 0.62041 cumulative IPC: 0.57275 (Simulation time: 0 hr 11 min 50 sec) 
Heartbeat CPU  0 instructions:  263000001 cycles:  338221885 heartbeat IPC: 0.59812 cumulative IPC: 0.57290 (Simulation time: 0 hr 11 min 53 sec) 
Heartbeat CPU  0 instructions:  264000000 cycles:  339802784 heartbeat IPC: 0.63255 cumulative IPC: 0.57323 (Simulation time: 0 hr 11 min 56 sec) 
Heartbeat CPU  0 instructions:  265000002 cycles:  341341579 heartbeat IPC: 0.64986 cumulative IPC: 0.57364 (Simulation time: 0 hr 11 min 59 sec) 
Heartbeat CPU  0 instructions:  266000000 cycles:  343005381 heartbeat IPC: 0.60103 cumulative IPC: 0.57380 (Simulation time: 0 hr 12 min 2 sec) 
Heartbeat CPU  0 instructions:  267000002 cycles:  345924668 heartbeat IPC: 0.34255 cumulative IPC: 0.57149 (Simulation time: 0 hr 12 min 5 sec) 
Heartbeat CPU  0 instructions:  268000000 cycles:  351459163 heartbeat IPC: 0.18068 cumulative IPC: 0.56422 (Simulation time: 0 hr 12 min 10 sec) 
Heartbeat CPU  0 instructions:  269000002 cycles:  353818187 heartbeat IPC: 0.42390 cumulative IPC: 0.56312 (Simulation time: 0 hr 12 min 14 sec) 
Heartbeat CPU  0 instructions:  270000003 cycles:  355746982 heartbeat IPC: 0.51846 cumulative IPC: 0.56284 (Simulation time: 0 hr 12 min 17 sec) 
Heartbeat CPU  0 instructions:  271000001 cycles:  357549798 heartbeat IPC: 0.55469 cumulative IPC: 0.56279 (Simulation time: 0 hr 12 min 20 sec) 
Heartbeat CPU  0 instructions:  272000000 cycles:  359413708 heartbeat IPC: 0.53651 cumulative IPC: 0.56263 (Simulation time: 0 hr 12 min 23 sec) 
Heartbeat CPU  0 instructions:  273000002 cycles:  360937692 heartbeat IPC: 0.65618 cumulative IPC: 0.56309 (Simulation time: 0 hr 12 min 26 sec) 
Heartbeat CPU  0 instructions:  274000003 cycles:  362616925 heartbeat IPC: 0.59551 cumulative IPC: 0.56327 (Simulation time: 0 hr 12 min 30 sec) 
Heartbeat CPU  0 instructions:  275000000 cycles:  364407980 heartbeat IPC: 0.55833 cumulative IPC: 0.56324 (Simulation time: 0 hr 12 min 33 sec) 
Heartbeat CPU  0 instructions:  276000000 cycles:  366004754 heartbeat IPC: 0.62626 cumulative IPC: 0.56356 (Simulation time: 0 hr 12 min 36 sec) 
Heartbeat CPU  0 instructions:  277000003 cycles:  367883330 heartbeat IPC: 0.53232 cumulative IPC: 0.56337 (Simulation time: 0 hr 12 min 39 sec) 
Heartbeat CPU  0 instructions:  278000003 cycles:  369400162 heartbeat IPC: 0.65927 cumulative IPC: 0.56383 (Simulation time: 0 hr 12 min 42 sec) 
Heartbeat CPU  0 instructions:  279000001 cycles:  371065187 heartbeat IPC: 0.60059 cumulative IPC: 0.56403 (Simulation time: 0 hr 12 min 45 sec) 
Heartbeat CPU  0 instructions:  280000000 cycles:  372758530 heartbeat IPC: 0.59055 cumulative IPC: 0.56417 (Simulation time: 0 hr 12 min 48 sec) 
Heartbeat CPU  0 instructions:  281000001 cycles:  374399316 heartbeat IPC: 0.60946 cumulative IPC: 0.56440 (Simulation time: 0 hr 12 min 51 sec) 
Heartbeat CPU  0 instructions:  282000003 cycles:  376000999 heartbeat IPC: 0.62434 cumulative IPC: 0.56470 (Simulation time: 0 hr 12 min 54 sec) 
Heartbeat CPU  0 instructions:  283000000 cycles:  377763440 heartbeat IPC: 0.56739 cumulative IPC: 0.56471 (Simulation time: 0 hr 12 min 58 sec) 
Heartbeat CPU  0 instructions:  284000000 cycles:  379492217 heartbeat IPC: 0.57844 cumulative IPC: 0.56479 (Simulation time: 0 hr 13 min 1 sec) 
Heartbeat CPU  0 instructions:  285000002 cycles:  381283203 heartbeat IPC: 0.55835 cumulative IPC: 0.56475 (Simulation time: 0 hr 13 min 4 sec) 
Heartbeat CPU  0 instructions:  286000000 cycles:  383047999 heartbeat IPC: 0.56664 cumulative IPC: 0.56476 (Simulation time: 0 hr 13 min 7 sec) 
Heartbeat CPU  0 instructions:  287000000 cycles:  384849922 heartbeat IPC: 0.55496 cumulative IPC: 0.56471 (Simulation time: 0 hr 13 min 10 sec) 
Heartbeat CPU  0 instructions:  288000000 cycles:  386627990 heartbeat IPC: 0.56241 cumulative IPC: 0.56469 (Simulation time: 0 hr 13 min 13 sec) 
Heartbeat CPU  0 instructions:  289000003 cycles:  388498478 heartbeat IPC: 0.53462 cumulative IPC: 0.56453 (Simulation time: 0 hr 13 min 17 sec) 
Heartbeat CPU  0 instructions:  290000000 cycles:  390163710 heartbeat IPC: 0.60052 cumulative IPC: 0.56471 (Simulation time: 0 hr 13 min 20 sec) 
Heartbeat CPU  0 instructions:  291000000 cycles:  391830944 heartbeat IPC: 0.59980 cumulative IPC: 0.56488 (Simulation time: 0 hr 13 min 23 sec) 
Heartbeat CPU  0 instructions:  292000000 cycles:  393554759 heartbeat IPC: 0.58011 cumulative IPC: 0.56496 (Simulation time: 0 hr 13 min 26 sec) 
Heartbeat CPU  0 instructions:  293000000 cycles:  395295485 heartbeat IPC: 0.57447 cumulative IPC: 0.56500 (Simulation time: 0 hr 13 min 29 sec) 
Heartbeat CPU  0 instructions:  294000002 cycles:  397066848 heartbeat IPC: 0.56454 cumulative IPC: 0.56500 (Simulation time: 0 hr 13 min 32 sec) 
Heartbeat CPU  0 instructions:  295000002 cycles:  398922653 heartbeat IPC: 0.53885 cumulative IPC: 0.56486 (Simulation time: 0 hr 13 min 35 sec) 
Heartbeat CPU  0 instructions:  296000000 cycles:  400672358 heartbeat IPC: 0.57152 cumulative IPC: 0.56489 (Simulation time: 0 hr 13 min 39 sec) 
Heartbeat CPU  0 instructions:  297000001 cycles:  402380682 heartbeat IPC: 0.58537 cumulative IPC: 0.56499 (Simulation time: 0 hr 13 min 42 sec) 
Heartbeat CPU  0 instructions:  298000000 cycles:  404187453 heartbeat IPC: 0.55347 cumulative IPC: 0.56494 (Simulation time: 0 hr 13 min 45 sec) 
Heartbeat CPU  0 instructions:  299000003 cycles:  406011695 heartbeat IPC: 0.54817 cumulative IPC: 0.56485 (Simulation time: 0 hr 13 min 48 sec) 
Heartbeat CPU  0 instructions:  300000000 cycles:  407841706 heartbeat IPC: 0.54644 cumulative IPC: 0.56475 (Simulation time: 0 hr 13 min 51 sec) 
Heartbeat CPU  0 instructions:  301000002 cycles:  409546708 heartbeat IPC: 0.58651 cumulative IPC: 0.56486 (Simulation time: 0 hr 13 min 54 sec) 
Heartbeat CPU  0 instructions:  302000002 cycles:  411360805 heartbeat IPC: 0.55124 cumulative IPC: 0.56479 (Simulation time: 0 hr 13 min 58 sec) 
Heartbeat CPU  0 instructions:  303000001 cycles:  413134837 heartbeat IPC: 0.56369 cumulative IPC: 0.56478 (Simulation time: 0 hr 14 min 1 sec) 
Heartbeat CPU  0 instructions:  304000000 cycles:  414933116 heartbeat IPC: 0.55609 cumulative IPC: 0.56474 (Simulation time: 0 hr 14 min 4 sec) 
Heartbeat CPU  0 instructions:  305000000 cycles:  416803709 heartbeat IPC: 0.53459 cumulative IPC: 0.56458 (Simulation time: 0 hr 14 min 7 sec) 
Heartbeat CPU  0 instructions:  306000001 cycles:  418580821 heartbeat IPC: 0.56271 cumulative IPC: 0.56458 (Simulation time: 0 hr 14 min 10 sec) 
Heartbeat CPU  0 instructions:  307000003 cycles:  420368050 heartbeat IPC: 0.55953 cumulative IPC: 0.56455 (Simulation time: 0 hr 14 min 14 sec) 
Heartbeat CPU  0 instructions:  308000000 cycles:  422138886 heartbeat IPC: 0.56470 cumulative IPC: 0.56455 (Simulation time: 0 hr 14 min 17 sec) 
Heartbeat CPU  0 instructions:  309000000 cycles:  423943226 heartbeat IPC: 0.55422 cumulative IPC: 0.56450 (Simulation time: 0 hr 14 min 20 sec) 
Heartbeat CPU  0 instructions:  310000001 cycles:  425844860 heartbeat IPC: 0.52586 cumulative IPC: 0.56430 (Simulation time: 0 hr 14 min 23 sec) 
Heartbeat CPU  0 instructions:  311000001 cycles:  427674182 heartbeat IPC: 0.54665 cumulative IPC: 0.56422 (Simulation time: 0 hr 14 min 26 sec) 
Heartbeat CPU  0 instructions:  312000000 cycles:  429464189 heartbeat IPC: 0.55866 cumulative IPC: 0.56419 (Simulation time: 0 hr 14 min 30 sec) 
Heartbeat CPU  0 instructions:  313000000 cycles:  431155830 heartbeat IPC: 0.59114 cumulative IPC: 0.56431 (Simulation time: 0 hr 14 min 33 sec) 
Heartbeat CPU  0 instructions:  314000001 cycles:  432965469 heartbeat IPC: 0.55260 cumulative IPC: 0.56426 (Simulation time: 0 hr 14 min 36 sec) 
Heartbeat CPU  0 instructions:  315000000 cycles:  434806253 heartbeat IPC: 0.54325 cumulative IPC: 0.56415 (Simulation time: 0 hr 14 min 39 sec) 
Heartbeat CPU  0 instructions:  316000000 cycles:  436539857 heartbeat IPC: 0.57683 cumulative IPC: 0.56421 (Simulation time: 0 hr 14 min 42 sec) 
Heartbeat CPU  0 instructions:  317000001 cycles:  438315802 heartbeat IPC: 0.56308 cumulative IPC: 0.56421 (Simulation time: 0 hr 14 min 45 sec) 
Heartbeat CPU  0 instructions:  318000001 cycles:  440137979 heartbeat IPC: 0.54879 cumulative IPC: 0.56413 (Simulation time: 0 hr 14 min 49 sec) 
Heartbeat CPU  0 instructions:  319000002 cycles:  441894240 heartbeat IPC: 0.56939 cumulative IPC: 0.56416 (Simulation time: 0 hr 14 min 52 sec) 
Heartbeat CPU  0 instructions:  320000000 cycles:  443698945 heartbeat IPC: 0.55411 cumulative IPC: 0.56411 (Simulation time: 0 hr 14 min 55 sec) 
Heartbeat CPU  0 instructions:  321000000 cycles:  445483504 heartbeat IPC: 0.56036 cumulative IPC: 0.56409 (Simulation time: 0 hr 14 min 58 sec) 
Heartbeat CPU  0 instructions:  322000001 cycles:  447290872 heartbeat IPC: 0.55329 cumulative IPC: 0.56404 (Simulation time: 0 hr 15 min 1 sec) 
Heartbeat CPU  0 instructions:  323000000 cycles:  449106786 heartbeat IPC: 0.55069 cumulative IPC: 0.56398 (Simulation time: 0 hr 15 min 5 sec) 
Heartbeat CPU  0 instructions:  324000000 cycles:  450863110 heartbeat IPC: 0.56937 cumulative IPC: 0.56401 (Simulation time: 0 hr 15 min 8 sec) 
Heartbeat CPU  0 instructions:  325000001 cycles:  452664742 heartbeat IPC: 0.55505 cumulative IPC: 0.56397 (Simulation time: 0 hr 15 min 11 sec) 
Heartbeat CPU  0 instructions:  326000000 cycles:  454441382 heartbeat IPC: 0.56286 cumulative IPC: 0.56396 (Simulation time: 0 hr 15 min 14 sec) 
Heartbeat CPU  0 instructions:  327000001 cycles:  456249345 heartbeat IPC: 0.55311 cumulative IPC: 0.56391 (Simulation time: 0 hr 15 min 17 sec) 
Heartbeat CPU  0 instructions:  328000000 cycles:  458022591 heartbeat IPC: 0.56394 cumulative IPC: 0.56391 (Simulation time: 0 hr 15 min 20 sec) 
Heartbeat CPU  0 instructions:  329000001 cycles:  459864103 heartbeat IPC: 0.54303 cumulative IPC: 0.56382 (Simulation time: 0 hr 15 min 24 sec) 
Heartbeat CPU  0 instructions:  330000000 cycles:  463387330 heartbeat IPC: 0.28383 cumulative IPC: 0.56141 (Simulation time: 0 hr 15 min 28 sec) 
Heartbeat CPU  0 instructions:  331000000 cycles:  466969911 heartbeat IPC: 0.27913 cumulative IPC: 0.55896 (Simulation time: 0 hr 15 min 31 sec) 
Heartbeat CPU  0 instructions:  332000000 cycles:  470261947 heartbeat IPC: 0.30376 cumulative IPC: 0.55695 (Simulation time: 0 hr 15 min 35 sec) 
Heartbeat CPU  0 instructions:  333000001 cycles:  473272423 heartbeat IPC: 0.33217 cumulative IPC: 0.55533 (Simulation time: 0 hr 15 min 39 sec) 
Heartbeat CPU  0 instructions:  334000002 cycles:  476695172 heartbeat IPC: 0.29216 cumulative IPC: 0.55320 (Simulation time: 0 hr 15 min 43 sec) 
Heartbeat CPU  0 instructions:  335000002 cycles:  480436585 heartbeat IPC: 0.26728 cumulative IPC: 0.55070 (Simulation time: 0 hr 15 min 47 sec) 
Heartbeat CPU  0 instructions:  336000000 cycles:  483831559 heartbeat IPC: 0.29455 cumulative IPC: 0.54868 (Simulation time: 0 hr 15 min 50 sec) 
Heartbeat CPU  0 instructions:  337000003 cycles:  487041014 heartbeat IPC: 0.31158 cumulative IPC: 0.54692 (Simulation time: 0 hr 15 min 54 sec) 
Heartbeat CPU  0 instructions:  338000000 cycles:  490356488 heartbeat IPC: 0.30162 cumulative IPC: 0.54506 (Simulation time: 0 hr 15 min 58 sec) 
Heartbeat CPU  0 instructions:  339000001 cycles:  494676238 heartbeat IPC: 0.23150 cumulative IPC: 0.54199 (Simulation time: 0 hr 16 min 2 sec) 
Heartbeat CPU  0 instructions:  340000000 cycles:  498042420 heartbeat IPC: 0.29707 cumulative IPC: 0.54013 (Simulation time: 0 hr 16 min 6 sec) 
Heartbeat CPU  0 instructions:  341000000 cycles:  501212497 heartbeat IPC: 0.31545 cumulative IPC: 0.53854 (Simulation time: 0 hr 16 min 9 sec) 
Heartbeat CPU  0 instructions:  342000000 cycles:  504542929 heartbeat IPC: 0.30026 cumulative IPC: 0.53678 (Simulation time: 0 hr 16 min 13 sec) 
Heartbeat CPU  0 instructions:  343000003 cycles:  507795765 heartbeat IPC: 0.30742 cumulative IPC: 0.53514 (Simulation time: 0 hr 16 min 17 sec) 
Heartbeat CPU  0 instructions:  344000000 cycles:  511124010 heartbeat IPC: 0.30046 cumulative IPC: 0.53343 (Simulation time: 0 hr 16 min 21 sec) 
Heartbeat CPU  0 instructions:  345000000 cycles:  514102643 heartbeat IPC: 0.33572 cumulative IPC: 0.53215 (Simulation time: 0 hr 16 min 24 sec) 
Heartbeat CPU  0 instructions:  346000003 cycles:  517170907 heartbeat IPC: 0.32592 cumulative IPC: 0.53078 (Simulation time: 0 hr 16 min 28 sec) 
Heartbeat CPU  0 instructions:  347000002 cycles:  520238088 heartbeat IPC: 0.32603 cumulative IPC: 0.52944 (Simulation time: 0 hr 16 min 32 sec) 
Heartbeat CPU  0 instructions:  348000000 cycles:  524760705 heartbeat IPC: 0.22111 cumulative IPC: 0.52648 (Simulation time: 0 hr 16 min 36 sec) 
Heartbeat CPU  0 instructions:  349000000 cycles:  528222414 heartbeat IPC: 0.28887 cumulative IPC: 0.52474 (Simulation time: 0 hr 16 min 40 sec) 
Heartbeat CPU  0 instructions:  350000003 cycles:  531427929 heartbeat IPC: 0.31196 cumulative IPC: 0.52332 (Simulation time: 0 hr 16 min 44 sec) 
Heartbeat CPU  0 instructions:  351000003 cycles:  534965450 heartbeat IPC: 0.28268 cumulative IPC: 0.52155 (Simulation time: 0 hr 16 min 47 sec) 
Heartbeat CPU  0 instructions:  352000000 cycles:  538332923 heartbeat IPC: 0.29696 cumulative IPC: 0.51999 (Simulation time: 0 hr 16 min 51 sec) 
Heartbeat CPU  0 instructions:  353000000 cycles:  541705328 heartbeat IPC: 0.29652 cumulative IPC: 0.51844 (Simulation time: 0 hr 16 min 55 sec) 
Heartbeat CPU  0 instructions:  354000000 cycles:  544986240 heartbeat IPC: 0.30479 cumulative IPC: 0.51702 (Simulation time: 0 hr 16 min 59 sec) 
Heartbeat CPU  0 instructions:  355000001 cycles:  548074199 heartbeat IPC: 0.32384 cumulative IPC: 0.51581 (Simulation time: 0 hr 17 min 2 sec) 
Heartbeat CPU  0 instructions:  356000000 cycles:  551283453 heartbeat IPC: 0.31160 cumulative IPC: 0.51449 (Simulation time: 0 hr 17 min 6 sec) 
Heartbeat CPU  0 instructions:  357000003 cycles:  554605928 heartbeat IPC: 0.30098 cumulative IPC: 0.51308 (Simulation time: 0 hr 17 min 10 sec) 
Heartbeat CPU  0 instructions:  358000000 cycles:  557278789 heartbeat IPC: 0.37413 cumulative IPC: 0.51234 (Simulation time: 0 hr 17 min 14 sec) 
Heartbeat CPU  0 instructions:  359000002 cycles:  559925474 heartbeat IPC: 0.37783 cumulative IPC: 0.51163 (Simulation time: 0 hr 17 min 18 sec) 
Heartbeat CPU  0 instructions:  360000000 cycles:  562520520 heartbeat IPC: 0.38535 cumulative IPC: 0.51099 (Simulation time: 0 hr 17 min 21 sec) 
Heartbeat CPU  0 instructions:  361000000 cycles:  565180276 heartbeat IPC: 0.37597 cumulative IPC: 0.51029 (Simulation time: 0 hr 17 min 25 sec) 
Heartbeat CPU  0 instructions:  362000000 cycles:  567801114 heartbeat IPC: 0.38156 cumulative IPC: 0.50963 (Simulation time: 0 hr 17 min 29 sec) 
Heartbeat CPU  0 instructions:  363000001 cycles:  570424926 heartbeat IPC: 0.38113 cumulative IPC: 0.50898 (Simulation time: 0 hr 17 min 33 sec) 
Heartbeat CPU  0 instructions:  364000000 cycles:  573024569 heartbeat IPC: 0.38467 cumulative IPC: 0.50836 (Simulation time: 0 hr 17 min 36 sec) 
Heartbeat CPU  0 instructions:  365000002 cycles:  575673850 heartbeat IPC: 0.37746 cumulative IPC: 0.50769 (Simulation time: 0 hr 17 min 40 sec) 
Heartbeat CPU  0 instructions:  366000001 cycles:  578269123 heartbeat IPC: 0.38532 cumulative IPC: 0.50709 (Simulation time: 0 hr 17 min 44 sec) 
Heartbeat CPU  0 instructions:  367000001 cycles:  580893444 heartbeat IPC: 0.38105 cumulative IPC: 0.50646 (Simulation time: 0 hr 17 min 48 sec) 
Heartbeat CPU  0 instructions:  368000000 cycles:  583509086 heartbeat IPC: 0.38231 cumulative IPC: 0.50585 (Simulation time: 0 hr 17 min 51 sec) 
Heartbeat CPU  0 instructions:  369000001 cycles:  586138099 heartbeat IPC: 0.38037 cumulative IPC: 0.50523 (Simulation time: 0 hr 17 min 55 sec) 
Heartbeat CPU  0 instructions:  370000002 cycles:  588706231 heartbeat IPC: 0.38939 cumulative IPC: 0.50467 (Simulation time: 0 hr 17 min 59 sec) 
Heartbeat CPU  0 instructions:  371000002 cycles:  591319874 heartbeat IPC: 0.38261 cumulative IPC: 0.50408 (Simulation time: 0 hr 18 min 2 sec) 
Heartbeat CPU  0 instructions:  372000000 cycles:  593897642 heartbeat IPC: 0.38793 cumulative IPC: 0.50352 (Simulation time: 0 hr 18 min 6 sec) 
Heartbeat CPU  0 instructions:  373000000 cycles:  596487847 heartbeat IPC: 0.38607 cumulative IPC: 0.50296 (Simulation time: 0 hr 18 min 10 sec) 
Heartbeat CPU  0 instructions:  374000003 cycles:  599048039 heartbeat IPC: 0.39060 cumulative IPC: 0.50244 (Simulation time: 0 hr 18 min 13 sec) 
Heartbeat CPU  0 instructions:  375000002 cycles:  601619845 heartbeat IPC: 0.38883 cumulative IPC: 0.50190 (Simulation time: 0 hr 18 min 17 sec) 
Heartbeat CPU  0 instructions:  376000000 cycles:  604229315 heartbeat IPC: 0.38322 cumulative IPC: 0.50134 (Simulation time: 0 hr 18 min 21 sec) 
Heartbeat CPU  0 instructions:  377000001 cycles:  606829240 heartbeat IPC: 0.38463 cumulative IPC: 0.50079 (Simulation time: 0 hr 18 min 24 sec) 
Heartbeat CPU  0 instructions:  378000000 cycles:  609393878 heartbeat IPC: 0.38992 cumulative IPC: 0.50028 (Simulation time: 0 hr 18 min 28 sec) 
Heartbeat CPU  0 instructions:  379000001 cycles:  612037220 heartbeat IPC: 0.37831 cumulative IPC: 0.49970 (Simulation time: 0 hr 18 min 32 sec) 
Heartbeat CPU  0 instructions:  380000000 cycles:  614651264 heartbeat IPC: 0.38255 cumulative IPC: 0.49916 (Simulation time: 0 hr 18 min 35 sec) 
Heartbeat CPU  0 instructions:  381000001 cycles:  617290788 heartbeat IPC: 0.37886 cumulative IPC: 0.49859 (Simulation time: 0 hr 18 min 39 sec) 
Heartbeat CPU  0 instructions:  382000000 cycles:  619907099 heartbeat IPC: 0.38222 cumulative IPC: 0.49806 (Simulation time: 0 hr 18 min 43 sec) 
Heartbeat CPU  0 instructions:  383000000 cycles:  622554304 heartbeat IPC: 0.37776 cumulative IPC: 0.49750 (Simulation time: 0 hr 18 min 46 sec) 
Heartbeat CPU  0 instructions:  384000000 cycles:  625163181 heartbeat IPC: 0.38331 cumulative IPC: 0.49697 (Simulation time: 0 hr 18 min 50 sec) 
Heartbeat CPU  0 instructions:  385000001 cycles:  627815334 heartbeat IPC: 0.37705 cumulative IPC: 0.49642 (Simulation time: 0 hr 18 min 54 sec) 
Heartbeat CPU  0 instructions:  386000001 cycles:  630457931 heartbeat IPC: 0.37842 cumulative IPC: 0.49588 (Simulation time: 0 hr 18 min 57 sec) 
Heartbeat CPU  0 instructions:  387000003 cycles:  633051250 heartbeat IPC: 0.38561 cumulative IPC: 0.49539 (Simulation time: 0 hr 19 min 1 sec) 
Heartbeat CPU  0 instructions:  388000000 cycles:  635717815 heartbeat IPC: 0.37501 cumulative IPC: 0.49483 (Simulation time: 0 hr 19 min 5 sec) 
Heartbeat CPU  0 instructions:  389000002 cycles:  638345809 heartbeat IPC: 0.38052 cumulative IPC: 0.49432 (Simulation time: 0 hr 19 min 9 sec) 
Heartbeat CPU  0 instructions:  390000002 cycles:  641024541 heartbeat IPC: 0.37331 cumulative IPC: 0.49377 (Simulation time: 0 hr 19 min 12 sec) 
Heartbeat CPU  0 instructions:  391000001 cycles:  643616613 heartbeat IPC: 0.38579 cumulative IPC: 0.49329 (Simulation time: 0 hr 19 min 16 sec) 
Heartbeat CPU  0 instructions:  392000000 cycles:  646262044 heartbeat IPC: 0.37801 cumulative IPC: 0.49278 (Simulation time: 0 hr 19 min 20 sec) 
Heartbeat CPU  0 instructions:  393000003 cycles:  648912389 heartbeat IPC: 0.37731 cumulative IPC: 0.49227 (Simulation time: 0 hr 19 min 23 sec) 
Heartbeat CPU  0 instructions:  394000002 cycles:  651884231 heartbeat IPC: 0.33649 cumulative IPC: 0.49149 (Simulation time: 0 hr 19 min 27 sec) 
Heartbeat CPU  0 instructions:  395000001 cycles:  654207223 heartbeat IPC: 0.43048 cumulative IPC: 0.49126 (Simulation time: 0 hr 19 min 31 sec) 
Heartbeat CPU  0 instructions:  396000000 cycles:  656145621 heartbeat IPC: 0.51589 cumulative IPC: 0.49133 (Simulation time: 0 hr 19 min 34 sec) 
Heartbeat CPU  0 instructions:  397000000 cycles:  657990703 heartbeat IPC: 0.54198 cumulative IPC: 0.49149 (Simulation time: 0 hr 19 min 37 sec) 
Heartbeat CPU  0 instructions:  398000001 cycles:  659870453 heartbeat IPC: 0.53199 cumulative IPC: 0.49161 (Simulation time: 0 hr 19 min 40 sec) 
Heartbeat CPU  0 instructions:  399000001 cycles:  661722044 heartbeat IPC: 0.54008 cumulative IPC: 0.49176 (Simulation time: 0 hr 19 min 43 sec) 
Heartbeat CPU  0 instructions:  400000000 cycles:  663645703 heartbeat IPC: 0.51984 cumulative IPC: 0.49185 (Simulation time: 0 hr 19 min 46 sec) 
Heartbeat CPU  0 instructions:  401000001 cycles:  665503948 heartbeat IPC: 0.53814 cumulative IPC: 0.49199 (Simulation time: 0 hr 19 min 49 sec) 
Heartbeat CPU  0 instructions:  402000000 cycles:  667337032 heartbeat IPC: 0.54553 cumulative IPC: 0.49215 (Simulation time: 0 hr 19 min 53 sec) 
Heartbeat CPU  0 instructions:  403000003 cycles:  669602530 heartbeat IPC: 0.44141 cumulative IPC: 0.49196 (Simulation time: 0 hr 19 min 56 sec) 
Heartbeat CPU  0 instructions:  404000000 cycles:  672041651 heartbeat IPC: 0.40998 cumulative IPC: 0.49164 (Simulation time: 0 hr 19 min 59 sec) 
Heartbeat CPU  0 instructions:  405000002 cycles:  673627976 heartbeat IPC: 0.63039 cumulative IPC: 0.49200 (Simulation time: 0 hr 20 min 2 sec) 
Heartbeat CPU  0 instructions:  406000002 cycles:  675281422 heartbeat IPC: 0.60480 cumulative IPC: 0.49230 (Simulation time: 0 hr 20 min 5 sec) 
Heartbeat CPU  0 instructions:  407000003 cycles:  676965312 heartbeat IPC: 0.59386 cumulative IPC: 0.49257 (Simulation time: 0 hr 20 min 8 sec) 
Heartbeat CPU  0 instructions:  408000000 cycles:  678602537 heartbeat IPC: 0.61079 cumulative IPC: 0.49288 (Simulation time: 0 hr 20 min 11 sec) 
Heartbeat CPU  0 instructions:  409000003 cycles:  680205978 heartbeat IPC: 0.62366 cumulative IPC: 0.49322 (Simulation time: 0 hr 20 min 14 sec) 
Heartbeat CPU  0 instructions:  410000002 cycles:  681873221 heartbeat IPC: 0.59979 cumulative IPC: 0.49350 (Simulation time: 0 hr 20 min 17 sec) 
Heartbeat CPU  0 instructions:  411000002 cycles:  683591013 heartbeat IPC: 0.58214 cumulative IPC: 0.49374 (Simulation time: 0 hr 20 min 20 sec) 
Heartbeat CPU  0 instructions:  412000000 cycles:  685307153 heartbeat IPC: 0.58270 cumulative IPC: 0.49398 (Simulation time: 0 hr 20 min 23 sec) 
Heartbeat CPU  0 instructions:  413000000 cycles:  686762598 heartbeat IPC: 0.68708 cumulative IPC: 0.49443 (Simulation time: 0 hr 20 min 26 sec) 
Heartbeat CPU  0 instructions:  414000002 cycles:  688836012 heartbeat IPC: 0.48230 cumulative IPC: 0.49439 (Simulation time: 0 hr 20 min 29 sec) 
Heartbeat CPU  0 instructions:  415000002 cycles:  690566417 heartbeat IPC: 0.57790 cumulative IPC: 0.49461 (Simulation time: 0 hr 20 min 32 sec) 
Heartbeat CPU  0 instructions:  416000000 cycles:  692220023 heartbeat IPC: 0.60474 cumulative IPC: 0.49490 (Simulation time: 0 hr 20 min 35 sec) 
Heartbeat CPU  0 instructions:  417000000 cycles:  693846694 heartbeat IPC: 0.61475 cumulative IPC: 0.49520 (Simulation time: 0 hr 20 min 38 sec) 
Heartbeat CPU  0 instructions:  418000002 cycles:  695513291 heartbeat IPC: 0.60003 cumulative IPC: 0.49547 (Simulation time: 0 hr 20 min 41 sec) 
Heartbeat CPU  0 instructions:  419000002 cycles:  697137315 heartbeat IPC: 0.61575 cumulative IPC: 0.49578 (Simulation time: 0 hr 20 min 44 sec) 
Heartbeat CPU  0 instructions:  420000000 cycles:  698742219 heartbeat IPC: 0.62309 cumulative IPC: 0.49610 (Simulation time: 0 hr 20 min 47 sec) 
Heartbeat CPU  0 instructions:  421000000 cycles:  700401811 heartbeat IPC: 0.60256 cumulative IPC: 0.49637 (Simulation time: 0 hr 20 min 50 sec) 
Heartbeat CPU  0 instructions:  422000001 cycles:  702078588 heartbeat IPC: 0.59638 cumulative IPC: 0.49663 (Simulation time: 0 hr 20 min 53 sec) 
Heartbeat CPU  0 instructions:  423000002 cycles:  703676498 heartbeat IPC: 0.62582 cumulative IPC: 0.49694 (Simulation time: 0 hr 20 min 56 sec) 
Heartbeat CPU  0 instructions:  424000000 cycles:  705400616 heartbeat IPC: 0.58001 cumulative IPC: 0.49716 (Simulation time: 0 hr 20 min 59 sec) 
Heartbeat CPU  0 instructions:  425000003 cycles:  707496900 heartbeat IPC: 0.47704 cumulative IPC: 0.49710 (Simulation time: 0 hr 21 min 2 sec) 
Heartbeat CPU  0 instructions:  426000003 cycles:  709071006 heartbeat IPC: 0.63528 cumulative IPC: 0.49743 (Simulation time: 0 hr 21 min 5 sec) 
Heartbeat CPU  0 instructions:  427000000 cycles:  710654510 heartbeat IPC: 0.63151 cumulative IPC: 0.49776 (Simulation time: 0 hr 21 min 8 sec) 
Heartbeat CPU  0 instructions:  428000000 cycles:  712279417 heartbeat IPC: 0.61542 cumulative IPC: 0.49805 (Simulation time: 0 hr 21 min 11 sec) 
Heartbeat CPU  0 instructions:  429000001 cycles:  713926178 heartbeat IPC: 0.60725 cumulative IPC: 0.49832 (Simulation time: 0 hr 21 min 14 sec) 
Heartbeat CPU  0 instructions:  430000003 cycles:  715511229 heartbeat IPC: 0.63090 cumulative IPC: 0.49864 (Simulation time: 0 hr 21 min 17 sec) 
Heartbeat CPU  0 instructions:  431000000 cycles:  717183554 heartbeat IPC: 0.59797 cumulative IPC: 0.49889 (Simulation time: 0 hr 21 min 20 sec) 
Heartbeat CPU  0 instructions:  432000000 cycles:  718813972 heartbeat IPC: 0.61334 cumulative IPC: 0.49917 (Simulation time: 0 hr 21 min 23 sec) 
Heartbeat CPU  0 instructions:  433000001 cycles:  720486071 heartbeat IPC: 0.59805 cumulative IPC: 0.49941 (Simulation time: 0 hr 21 min 26 sec) 
Heartbeat CPU  0 instructions:  434000001 cycles:  721965643 heartbeat IPC: 0.67587 cumulative IPC: 0.49980 (Simulation time: 0 hr 21 min 29 sec) 
Heartbeat CPU  0 instructions:  435000003 cycles:  724032263 heartbeat IPC: 0.48388 cumulative IPC: 0.49976 (Simulation time: 0 hr 21 min 32 sec) 
Heartbeat CPU  0 instructions:  436000000 cycles:  725886945 heartbeat IPC: 0.53917 cumulative IPC: 0.49986 (Simulation time: 0 hr 21 min 35 sec) 
Heartbeat CPU  0 instructions:  437000001 cycles:  727516418 heartbeat IPC: 0.61370 cumulative IPC: 0.50014 (Simulation time: 0 hr 21 min 38 sec) 
Heartbeat CPU  0 instructions:  438000000 cycles:  729102272 heartbeat IPC: 0.63057 cumulative IPC: 0.50045 (Simulation time: 0 hr 21 min 41 sec) 
Heartbeat CPU  0 instructions:  439000003 cycles:  730702644 heartbeat IPC: 0.62486 cumulative IPC: 0.50074 (Simulation time: 0 hr 21 min 44 sec) 
Heartbeat CPU  0 instructions:  440000000 cycles:  732400890 heartbeat IPC: 0.58884 cumulative IPC: 0.50096 (Simulation time: 0 hr 21 min 47 sec) 
Heartbeat CPU  0 instructions:  441000001 cycles:  734034547 heartbeat IPC: 0.61212 cumulative IPC: 0.50123 (Simulation time: 0 hr 21 min 50 sec) 
Heartbeat CPU  0 instructions:  442000000 cycles:  735685773 heartbeat IPC: 0.60561 cumulative IPC: 0.50148 (Simulation time: 0 hr 21 min 53 sec) 
Heartbeat CPU  0 instructions:  443000003 cycles:  737352245 heartbeat IPC: 0.60007 cumulative IPC: 0.50172 (Simulation time: 0 hr 21 min 56 sec) 
Heartbeat CPU  0 instructions:  444000000 cycles:  738909036 heartbeat IPC: 0.64235 cumulative IPC: 0.50204 (Simulation time: 0 hr 21 min 59 sec) 
Heartbeat CPU  0 instructions:  445000000 cycles:  740724784 heartbeat IPC: 0.55074 cumulative IPC: 0.50217 (Simulation time: 0 hr 22 min 2 sec) 
Heartbeat CPU  0 instructions:  446000000 cycles:  742822922 heartbeat IPC: 0.47661 cumulative IPC: 0.50209 (Simulation time: 0 hr 22 min 5 sec) 
Heartbeat CPU  0 instructions:  447000001 cycles:  744471284 heartbeat IPC: 0.60666 cumulative IPC: 0.50234 (Simulation time: 0 hr 22 min 8 sec) 
Heartbeat CPU  0 instructions:  448000000 cycles:  746027842 heartbeat IPC: 0.64244 cumulative IPC: 0.50266 (Simulation time: 0 hr 22 min 11 sec) 
Heartbeat CPU  0 instructions:  449000001 cycles:  747643263 heartbeat IPC: 0.61903 cumulative IPC: 0.50293 (Simulation time: 0 hr 22 min 14 sec) 
Heartbeat CPU  0 instructions:  450000000 cycles:  749328462 heartbeat IPC: 0.59340 cumulative IPC: 0.50315 (Simulation time: 0 hr 22 min 17 sec) 
Heartbeat CPU  0 instructions:  451000000 cycles:  750989921 heartbeat IPC: 0.60188 cumulative IPC: 0.50338 (Simulation time: 0 hr 22 min 20 sec) 
Heartbeat CPU  0 instructions:  452000000 cycles:  752632671 heartbeat IPC: 0.60874 cumulative IPC: 0.50363 (Simulation time: 0 hr 22 min 23 sec) 
Heartbeat CPU  0 instructions:  453000002 cycles:  754284974 heartbeat IPC: 0.60522 cumulative IPC: 0.50387 (Simulation time: 0 hr 22 min 26 sec) 
Heartbeat CPU  0 instructions:  454000000 cycles:  755965349 heartbeat IPC: 0.59510 cumulative IPC: 0.50409 (Simulation time: 0 hr 22 min 29 sec) 
Heartbeat CPU  0 instructions:  455000002 cycles:  757388220 heartbeat IPC: 0.70281 cumulative IPC: 0.50449 (Simulation time: 0 hr 22 min 32 sec) 
Heartbeat CPU  0 instructions:  456000000 cycles:  759615593 heartbeat IPC: 0.44896 cumulative IPC: 0.50431 (Simulation time: 0 hr 22 min 35 sec) 
Heartbeat CPU  0 instructions:  457000002 cycles:  761439559 heartbeat IPC: 0.54826 cumulative IPC: 0.50443 (Simulation time: 0 hr 22 min 38 sec) 
Heartbeat CPU  0 instructions:  458000000 cycles:  763053553 heartbeat IPC: 0.61958 cumulative IPC: 0.50469 (Simulation time: 0 hr 22 min 41 sec) 
Heartbeat CPU  0 instructions:  459000000 cycles:  764676212 heartbeat IPC: 0.61627 cumulative IPC: 0.50494 (Simulation time: 0 hr 22 min 44 sec) 
Heartbeat CPU  0 instructions:  460000000 cycles:  766344743 heartbeat IPC: 0.59933 cumulative IPC: 0.50516 (Simulation time: 0 hr 22 min 47 sec) 
Heartbeat CPU  0 instructions:  461000000 cycles:  768013547 heartbeat IPC: 0.59923 cumulative IPC: 0.50538 (Simulation time: 0 hr 22 min 50 sec) 
Heartbeat CPU  0 instructions:  462000000 cycles:  769674591 heartbeat IPC: 0.60203 cumulative IPC: 0.50561 (Simulation time: 0 hr 22 min 53 sec) 
Heartbeat CPU  0 instructions:  463000002 cycles:  771334063 heartbeat IPC: 0.60260 cumulative IPC: 0.50583 (Simulation time: 0 hr 22 min 56 sec) 
Heartbeat CPU  0 instructions:  464000000 cycles:  772954845 heartbeat IPC: 0.61698 cumulative IPC: 0.50608 (Simulation time: 0 hr 22 min 59 sec) 
Heartbeat CPU  0 instructions:  465000001 cycles:  774445565 heartbeat IPC: 0.67082 cumulative IPC: 0.50642 (Simulation time: 0 hr 23 min 2 sec) 
Heartbeat CPU  0 instructions:  466000001 cycles:  776316464 heartbeat IPC: 0.53450 cumulative IPC: 0.50650 (Simulation time: 0 hr 23 min 5 sec) 
Heartbeat CPU  0 instructions:  467000000 cycles:  778452975 heartbeat IPC: 0.46805 cumulative IPC: 0.50638 (Simulation time: 0 hr 23 min 8 sec) 
Heartbeat CPU  0 instructions:  468000000 cycles:  780040488 heartbeat IPC: 0.62992 cumulative IPC: 0.50665 (Simulation time: 0 hr 23 min 11 sec) 
Heartbeat CPU  0 instructions:  469000002 cycles:  781670662 heartbeat IPC: 0.61343 cumulative IPC: 0.50689 (Simulation time: 0 hr 23 min 14 sec) 
Heartbeat CPU  0 instructions:  470000003 cycles:  783270798 heartbeat IPC: 0.62495 cumulative IPC: 0.50715 (Simulation time: 0 hr 23 min 17 sec) 
Heartbeat CPU  0 instructions:  471000001 cycles:  784959013 heartbeat IPC: 0.59234 cumulative IPC: 0.50735 (Simulation time: 0 hr 23 min 20 sec) 
Heartbeat CPU  0 instructions:  472000000 cycles:  786653482 heartbeat IPC: 0.59015 cumulative IPC: 0.50754 (Simulation time: 0 hr 23 min 23 sec) 
Heartbeat CPU  0 instructions:  473000000 cycles:  788286923 heartbeat IPC: 0.61220 cumulative IPC: 0.50777 (Simulation time: 0 hr 23 min 26 sec) 
Heartbeat CPU  0 instructions:  474000002 cycles:  789908383 heartbeat IPC: 0.61673 cumulative IPC: 0.50801 (Simulation time: 0 hr 23 min 29 sec) 
Heartbeat CPU  0 instructions:  475000000 cycles:  791593895 heartbeat IPC: 0.59329 cumulative IPC: 0.50821 (Simulation time: 0 hr 23 min 32 sec) 
Heartbeat CPU  0 instructions:  476000000 cycles:  793129371 heartbeat IPC: 0.65126 cumulative IPC: 0.50850 (Simulation time: 0 hr 23 min 35 sec) 
Heartbeat CPU  0 instructions:  477000003 cycles:  795336184 heartbeat IPC: 0.45314 cumulative IPC: 0.50834 (Simulation time: 0 hr 23 min 38 sec) 
Heartbeat CPU  0 instructions:  478000001 cycles:  797062642 heartbeat IPC: 0.57922 cumulative IPC: 0.50850 (Simulation time: 0 hr 23 min 41 sec) 
Heartbeat CPU  0 instructions:  479000000 cycles:  798659279 heartbeat IPC: 0.62632 cumulative IPC: 0.50876 (Simulation time: 0 hr 23 min 44 sec) 
Heartbeat CPU  0 instructions:  480000000 cycles:  800284762 heartbeat IPC: 0.61520 cumulative IPC: 0.50899 (Simulation time: 0 hr 23 min 47 sec) 
Heartbeat CPU  0 instructions:  481000001 cycles:  801939438 heartbeat IPC: 0.60435 cumulative IPC: 0.50920 (Simulation time: 0 hr 23 min 50 sec) 
Heartbeat CPU  0 instructions:  482000003 cycles:  803605730 heartbeat IPC: 0.60014 cumulative IPC: 0.50940 (Simulation time: 0 hr 23 min 53 sec) 
Heartbeat CPU  0 instructions:  483000000 cycles:  805217428 heartbeat IPC: 0.62046 cumulative IPC: 0.50964 (Simulation time: 0 hr 23 min 56 sec) 
Heartbeat CPU  0 instructions:  484000000 cycles:  806866345 heartbeat IPC: 0.60646 cumulative IPC: 0.50985 (Simulation time: 0 hr 23 min 59 sec) 
Heartbeat CPU  0 instructions:  485000001 cycles:  808514944 heartbeat IPC: 0.60658 cumulative IPC: 0.51006 (Simulation time: 0 hr 24 min 2 sec) 
Heartbeat CPU  0 instructions:  486000000 cycles:  809983227 heartbeat IPC: 0.68107 cumulative IPC: 0.51039 (Simulation time: 0 hr 24 min 5 sec) 
Heartbeat CPU  0 instructions:  487000002 cycles:  812021572 heartbeat IPC: 0.49060 cumulative IPC: 0.51034 (Simulation time: 0 hr 24 min 8 sec) 
Heartbeat CPU  0 instructions:  488000000 cycles:  814174140 heartbeat IPC: 0.46456 cumulative IPC: 0.51021 (Simulation time: 0 hr 24 min 11 sec) 
Heartbeat CPU  0 instructions:  489000000 cycles:  815761888 heartbeat IPC: 0.62982 cumulative IPC: 0.51046 (Simulation time: 0 hr 24 min 14 sec) 
Heartbeat CPU  0 instructions:  490000000 cycles:  817363417 heartbeat IPC: 0.62440 cumulative IPC: 0.51070 (Simulation time: 0 hr 24 min 17 sec) 
Heartbeat CPU  0 instructions:  491000001 cycles:  818977172 heartbeat IPC: 0.61967 cumulative IPC: 0.51093 (Simulation time: 0 hr 24 min 20 sec) 
Heartbeat CPU  0 instructions:  492000000 cycles:  820636892 heartbeat IPC: 0.60251 cumulative IPC: 0.51113 (Simulation time: 0 hr 24 min 23 sec) 
Heartbeat CPU  0 instructions:  493000000 cycles:  822319170 heartbeat IPC: 0.59443 cumulative IPC: 0.51131 (Simulation time: 0 hr 24 min 26 sec) 
Heartbeat CPU  0 instructions:  494000003 cycles:  823946549 heartbeat IPC: 0.61449 cumulative IPC: 0.51153 (Simulation time: 0 hr 24 min 29 sec) 
Heartbeat CPU  0 instructions:  495000001 cycles:  825591177 heartbeat IPC: 0.60804 cumulative IPC: 0.51173 (Simulation time: 0 hr 24 min 32 sec) 
Heartbeat CPU  0 instructions:  496000000 cycles:  827246826 heartbeat IPC: 0.60399 cumulative IPC: 0.51193 (Simulation time: 0 hr 24 min 35 sec) 
Heartbeat CPU  0 instructions:  497000003 cycles:  828802674 heartbeat IPC: 0.64274 cumulative IPC: 0.51219 (Simulation time: 0 hr 24 min 38 sec) 
Heartbeat CPU  0 instructions:  498000001 cycles:  831007023 heartbeat IPC: 0.45365 cumulative IPC: 0.51203 (Simulation time: 0 hr 24 min 41 sec) 
Heartbeat CPU  0 instructions:  499000001 cycles:  832693449 heartbeat IPC: 0.59297 cumulative IPC: 0.51220 (Simulation time: 0 hr 24 min 44 sec) 
Heartbeat CPU  0 instructions:  500000000 cycles:  834299305 heartbeat IPC: 0.62272 cumulative IPC: 0.51243 (Simulation time: 0 hr 24 min 47 sec) 
Heartbeat CPU  0 instructions:  501000003 cycles:  835903943 heartbeat IPC: 0.62320 cumulative IPC: 0.51266 (Simulation time: 0 hr 24 min 50 sec) 
Heartbeat CPU  0 instructions:  502000003 cycles:  837555402 heartbeat IPC: 0.60553 cumulative IPC: 0.51285 (Simulation time: 0 hr 24 min 53 sec) 
Heartbeat CPU  0 instructions:  503000002 cycles:  839231076 heartbeat IPC: 0.59677 cumulative IPC: 0.51303 (Simulation time: 0 hr 24 min 56 sec) 
Heartbeat CPU  0 instructions:  504000000 cycles:  840866465 heartbeat IPC: 0.61147 cumulative IPC: 0.51324 (Simulation time: 0 hr 24 min 59 sec) 
Heartbeat CPU  0 instructions:  505000000 cycles:  842497577 heartbeat IPC: 0.61308 cumulative IPC: 0.51344 (Simulation time: 0 hr 25 min 2 sec) 
Heartbeat CPU  0 instructions:  506000002 cycles:  844157944 heartbeat IPC: 0.60228 cumulative IPC: 0.51363 (Simulation time: 0 hr 25 min 5 sec) 
Heartbeat CPU  0 instructions:  507000001 cycles:  845583099 heartbeat IPC: 0.70168 cumulative IPC: 0.51397 (Simulation time: 0 hr 25 min 8 sec) 
Heartbeat CPU  0 instructions:  508000000 cycles:  847632337 heartbeat IPC: 0.48799 cumulative IPC: 0.51390 (Simulation time: 0 hr 25 min 11 sec) 
Heartbeat CPU  0 instructions:  509000002 cycles:  849608436 heartbeat IPC: 0.50605 cumulative IPC: 0.51388 (Simulation time: 0 hr 25 min 14 sec) 
Heartbeat CPU  0 instructions:  510000002 cycles:  851206555 heartbeat IPC: 0.62574 cumulative IPC: 0.51411 (Simulation time: 0 hr 25 min 17 sec) 
Heartbeat CPU  0 instructions:  511000001 cycles:  852842073 heartbeat IPC: 0.61143 cumulative IPC: 0.51430 (Simulation time: 0 hr 25 min 20 sec) 
Heartbeat CPU  0 instructions:  512000000 cycles:  854468176 heartbeat IPC: 0.61497 cumulative IPC: 0.51451 (Simulation time: 0 hr 25 min 23 sec) 
Heartbeat CPU  0 instructions:  513000002 cycles:  856126464 heartbeat IPC: 0.60303 cumulative IPC: 0.51469 (Simulation time: 0 hr 25 min 26 sec) 
Heartbeat CPU  0 instructions:  514000000 cycles:  857819976 heartbeat IPC: 0.59049 cumulative IPC: 0.51485 (Simulation time: 0 hr 25 min 29 sec) 
Heartbeat CPU  0 instructions:  515000000 cycles:  859427202 heartbeat IPC: 0.62219 cumulative IPC: 0.51507 (Simulation time: 0 hr 25 min 32 sec) 
Heartbeat CPU  0 instructions:  516000000 cycles:  861083285 heartbeat IPC: 0.60383 cumulative IPC: 0.51525 (Simulation time: 0 hr 25 min 35 sec) 
Heartbeat CPU  0 instructions:  517000002 cycles:  862665196 heartbeat IPC: 0.63215 cumulative IPC: 0.51548 (Simulation time: 0 hr 25 min 38 sec) 
Heartbeat CPU  0 instructions:  518000000 cycles:  864263056 heartbeat IPC: 0.62584 cumulative IPC: 0.51569 (Simulation time: 0 hr 25 min 41 sec) 
Heartbeat CPU  0 instructions:  519000003 cycles:  866469565 heartbeat IPC: 0.45321 cumulative IPC: 0.51552 (Simulation time: 0 hr 25 min 44 sec) 
Heartbeat CPU  0 instructions:  520000000 cycles:  868179691 heartbeat IPC: 0.58475 cumulative IPC: 0.51567 (Simulation time: 0 hr 25 min 48 sec) 
Heartbeat CPU  0 instructions:  521000000 cycles:  869806847 heartbeat IPC: 0.61457 cumulative IPC: 0.51587 (Simulation time: 0 hr 25 min 50 sec) 
Heartbeat CPU  0 instructions:  522000003 cycles:  871415753 heartbeat IPC: 0.62154 cumulative IPC: 0.51607 (Simulation time: 0 hr 25 min 53 sec) 
Heartbeat CPU  0 instructions:  523000001 cycles:  873061196 heartbeat IPC: 0.60774 cumulative IPC: 0.51626 (Simulation time: 0 hr 25 min 56 sec) 
Heartbeat CPU  0 instructions:  524000000 cycles:  874686098 heartbeat IPC: 0.61542 cumulative IPC: 0.51646 (Simulation time: 0 hr 26 min 0 sec) 
Heartbeat CPU  0 instructions:  525000002 cycles:  876350314 heartbeat IPC: 0.60088 cumulative IPC: 0.51663 (Simulation time: 0 hr 26 min 3 sec) 
Heartbeat CPU  0 instructions:  526000002 cycles:  878001812 heartbeat IPC: 0.60551 cumulative IPC: 0.51680 (Simulation time: 0 hr 26 min 6 sec) 
Heartbeat CPU  0 instructions:  527000000 cycles:  879646247 heartbeat IPC: 0.60811 cumulative IPC: 0.51699 (Simulation time: 0 hr 26 min 8 sec) 
Heartbeat CPU  0 instructions:  528000000 cycles:  881033313 heartbeat IPC: 0.72095 cumulative IPC: 0.51733 (Simulation time: 0 hr 26 min 11 sec) 
Heartbeat CPU  0 instructions:  529000003 cycles:  883110882 heartbeat IPC: 0.48133 cumulative IPC: 0.51724 (Simulation time: 0 hr 26 min 14 sec) 
Heartbeat CPU  0 instructions:  530000002 cycles:  885115785 heartbeat IPC: 0.49878 cumulative IPC: 0.51719 (Simulation time: 0 hr 26 min 18 sec) 
Heartbeat CPU  0 instructions:  531000002 cycles:  886771992 heartbeat IPC: 0.60379 cumulative IPC: 0.51737 (Simulation time: 0 hr 26 min 21 sec) 
Heartbeat CPU  0 instructions:  532000000 cycles:  888366306 heartbeat IPC: 0.62723 cumulative IPC: 0.51758 (Simulation time: 0 hr 26 min 24 sec) 
Heartbeat CPU  0 instructions:  533000001 cycles:  889978433 heartbeat IPC: 0.62030 cumulative IPC: 0.51777 (Simulation time: 0 hr 26 min 27 sec) 
Heartbeat CPU  0 instructions:  534000003 cycles:  891610506 heartbeat IPC: 0.61272 cumulative IPC: 0.51796 (Simulation time: 0 hr 26 min 30 sec) 
Heartbeat CPU  0 instructions:  535000000 cycles:  893311629 heartbeat IPC: 0.58785 cumulative IPC: 0.51810 (Simulation time: 0 hr 26 min 33 sec) 
Heartbeat CPU  0 instructions:  536000000 cycles:  894959488 heartbeat IPC: 0.60685 cumulative IPC: 0.51827 (Simulation time: 0 hr 26 min 36 sec) 
Heartbeat CPU  0 instructions:  537000002 cycles:  896628317 heartbeat IPC: 0.59922 cumulative IPC: 0.51843 (Simulation time: 0 hr 26 min 39 sec) 
Heartbeat CPU  0 instructions:  538000003 cycles:  898165544 heartbeat IPC: 0.65052 cumulative IPC: 0.51867 (Simulation time: 0 hr 26 min 42 sec) 
Heartbeat CPU  0 instructions:  539000001 cycles:  899948201 heartbeat IPC: 0.56096 cumulative IPC: 0.51876 (Simulation time: 0 hr 26 min 45 sec) 
Heartbeat CPU  0 instructions:  540000000 cycles:  902903694 heartbeat IPC: 0.33835 cumulative IPC: 0.51814 (Simulation time: 0 hr 26 min 48 sec) 
Heartbeat CPU  0 instructions:  541000002 cycles:  905550715 heartbeat IPC: 0.37778 cumulative IPC: 0.51770 (Simulation time: 0 hr 26 min 52 sec) 
Heartbeat CPU  0 instructions:  542000003 cycles:  907817969 heartbeat IPC: 0.44106 cumulative IPC: 0.51750 (Simulation time: 0 hr 26 min 55 sec) 
Heartbeat CPU  0 instructions:  543000002 cycles:  910016244 heartbeat IPC: 0.45490 cumulative IPC: 0.51734 (Simulation time: 0 hr 26 min 58 sec) 
Heartbeat CPU  0 instructions:  544000000 cycles:  912180379 heartbeat IPC: 0.46208 cumulative IPC: 0.51720 (Simulation time: 0 hr 27 min 2 sec) 
Heartbeat CPU  0 instructions:  545000000 cycles:  914443238 heartbeat IPC: 0.44192 cumulative IPC: 0.51700 (Simulation time: 0 hr 27 min 5 sec) 
Heartbeat CPU  0 instructions:  546000001 cycles:  916739228 heartbeat IPC: 0.43554 cumulative IPC: 0.51678 (Simulation time: 0 hr 27 min 9 sec) 
Heartbeat CPU  0 instructions:  547000002 cycles:  918962146 heartbeat IPC: 0.44986 cumulative IPC: 0.51661 (Simulation time: 0 hr 27 min 12 sec) 
Heartbeat CPU  0 instructions:  548000000 cycles:  921235742 heartbeat IPC: 0.43983 cumulative IPC: 0.51641 (Simulation time: 0 hr 27 min 16 sec) 
Heartbeat CPU  0 instructions:  549000003 cycles:  923374075 heartbeat IPC: 0.46766 cumulative IPC: 0.51629 (Simulation time: 0 hr 27 min 19 sec) 
Heartbeat CPU  0 instructions:  550000002 cycles:  925409583 heartbeat IPC: 0.49128 cumulative IPC: 0.51623 (Simulation time: 0 hr 27 min 22 sec) 
Heartbeat CPU  0 instructions:  551000002 cycles:  928321999 heartbeat IPC: 0.34336 cumulative IPC: 0.51565 (Simulation time: 0 hr 27 min 26 sec) 
Heartbeat CPU  0 instructions:  552000000 cycles:  929783481 heartbeat IPC: 0.68424 cumulative IPC: 0.51594 (Simulation time: 0 hr 27 min 29 sec) 
Heartbeat CPU  0 instructions:  553000000 cycles:  931345304 heartbeat IPC: 0.64028 cumulative IPC: 0.51616 (Simulation time: 0 hr 27 min 32 sec) 
Heartbeat CPU  0 instructions:  554000001 cycles:  932798552 heartbeat IPC: 0.68811 cumulative IPC: 0.51644 (Simulation time: 0 hr 27 min 35 sec) 
Heartbeat CPU  0 instructions:  555000001 cycles:  934309070 heartbeat IPC: 0.66202 cumulative IPC: 0.51669 (Simulation time: 0 hr 27 min 38 sec) 
Heartbeat CPU  0 instructions:  556000000 cycles:  935900591 heartbeat IPC: 0.62833 cumulative IPC: 0.51689 (Simulation time: 0 hr 27 min 41 sec) 
Heartbeat CPU  0 instructions:  557000001 cycles:  937753978 heartbeat IPC: 0.53955 cumulative IPC: 0.51694 (Simulation time: 0 hr 27 min 44 sec) 
Heartbeat CPU  0 instructions:  558000001 cycles:  940003195 heartbeat IPC: 0.44460 cumulative IPC: 0.51676 (Simulation time: 0 hr 27 min 48 sec) 
Heartbeat CPU  0 instructions:  559000000 cycles:  941804355 heartbeat IPC: 0.55520 cumulative IPC: 0.51683 (Simulation time: 0 hr 27 min 51 sec) 
Heartbeat CPU  0 instructions:  560000000 cycles:  943484420 heartbeat IPC: 0.59522 cumulative IPC: 0.51698 (Simulation time: 0 hr 27 min 54 sec) 
Heartbeat CPU  0 instructions:  561000000 cycles:  946232277 heartbeat IPC: 0.36392 cumulative IPC: 0.51651 (Simulation time: 0 hr 27 min 58 sec) 
Heartbeat CPU  0 instructions:  562000002 cycles:  948501388 heartbeat IPC: 0.44070 cumulative IPC: 0.51632 (Simulation time: 0 hr 28 min 1 sec) 
Heartbeat CPU  0 instructions:  563000003 cycles:  950031567 heartbeat IPC: 0.65352 cumulative IPC: 0.51655 (Simulation time: 0 hr 28 min 4 sec) 
Heartbeat CPU  0 instructions:  564000000 cycles:  951792373 heartbeat IPC: 0.56792 cumulative IPC: 0.51665 (Simulation time: 0 hr 28 min 7 sec) 
Heartbeat CPU  0 instructions:  565000000 cycles:  953700290 heartbeat IPC: 0.52413 cumulative IPC: 0.51667 (Simulation time: 0 hr 28 min 11 sec) 
Heartbeat CPU  0 instructions:  566000003 cycles:  955803450 heartbeat IPC: 0.47548 cumulative IPC: 0.51657 (Simulation time: 0 hr 28 min 14 sec) 
Heartbeat CPU  0 instructions:  567000003 cycles:  957462162 heartbeat IPC: 0.60288 cumulative IPC: 0.51673 (Simulation time: 0 hr 28 min 17 sec) 
Heartbeat CPU  0 instructions:  568000000 cycles:  959103746 heartbeat IPC: 0.60917 cumulative IPC: 0.51690 (Simulation time: 0 hr 28 min 20 sec) 
Heartbeat CPU  0 instructions:  569000000 cycles:  960931923 heartbeat IPC: 0.54699 cumulative IPC: 0.51696 (Simulation time: 0 hr 28 min 23 sec) 
Heartbeat CPU  0 instructions:  570000003 cycles:  962957698 heartbeat IPC: 0.49364 cumulative IPC: 0.51691 (Simulation time: 0 hr 28 min 27 sec) 
Heartbeat CPU  0 instructions:  571000000 cycles:  964778786 heartbeat IPC: 0.54912 cumulative IPC: 0.51697 (Simulation time: 0 hr 28 min 30 sec) 
Heartbeat CPU  0 instructions:  572000000 cycles:  968038107 heartbeat IPC: 0.30681 cumulative IPC: 0.51622 (Simulation time: 0 hr 28 min 34 sec) 
Heartbeat CPU  0 instructions:  573000002 cycles:  969377991 heartbeat IPC: 0.74633 cumulative IPC: 0.51656 (Simulation time: 0 hr 28 min 37 sec) 
Heartbeat CPU  0 instructions:  574000000 cycles:  970850446 heartbeat IPC: 0.67914 cumulative IPC: 0.51682 (Simulation time: 0 hr 28 min 40 sec) 
Heartbeat CPU  0 instructions:  575000003 cycles:  972497753 heartbeat IPC: 0.60705 cumulative IPC: 0.51698 (Simulation time: 0 hr 28 min 43 sec) 
Heartbeat CPU  0 instructions:  576000000 cycles:  974356549 heartbeat IPC: 0.53798 cumulative IPC: 0.51703 (Simulation time: 0 hr 28 min 46 sec) 
Heartbeat CPU  0 instructions:  577000002 cycles:  976017853 heartbeat IPC: 0.60194 cumulative IPC: 0.51718 (Simulation time: 0 hr 28 min 49 sec) 
Heartbeat CPU  0 instructions:  578000002 cycles:  978272270 heartbeat IPC: 0.44357 cumulative IPC: 0.51700 (Simulation time: 0 hr 28 min 53 sec) 
Heartbeat CPU  0 instructions:  579000001 cycles:  980256329 heartbeat IPC: 0.50402 cumulative IPC: 0.51697 (Simulation time: 0 hr 28 min 56 sec) 
Heartbeat CPU  0 instructions:  580000000 cycles:  981906902 heartbeat IPC: 0.60585 cumulative IPC: 0.51713 (Simulation time: 0 hr 28 min 59 sec) 
Heartbeat CPU  0 instructions:  581000000 cycles:  983630643 heartbeat IPC: 0.58013 cumulative IPC: 0.51725 (Simulation time: 0 hr 29 min 2 sec) 
Heartbeat CPU  0 instructions:  582000002 cycles:  986100665 heartbeat IPC: 0.40486 cumulative IPC: 0.51695 (Simulation time: 0 hr 29 min 6 sec) 
Heartbeat CPU  0 instructions:  583000000 cycles:  987835223 heartbeat IPC: 0.57651 cumulative IPC: 0.51706 (Simulation time: 0 hr 29 min 9 sec) 
Heartbeat CPU  0 instructions:  584000000 cycles:  989508249 heartbeat IPC: 0.59772 cumulative IPC: 0.51720 (Simulation time: 0 hr 29 min 12 sec) 
Heartbeat CPU  0 instructions:  585000001 cycles:  991501833 heartbeat IPC: 0.50161 cumulative IPC: 0.51717 (Simulation time: 0 hr 29 min 15 sec) 
Heartbeat CPU  0 instructions:  586000002 cycles:  993485954 heartbeat IPC: 0.50400 cumulative IPC: 0.51714 (Simulation time: 0 hr 29 min 19 sec) 
Heartbeat CPU  0 instructions:  587000002 cycles:  995133925 heartbeat IPC: 0.60681 cumulative IPC: 0.51730 (Simulation time: 0 hr 29 min 22 sec) 
Heartbeat CPU  0 instructions:  588000000 cycles:  996781672 heartbeat IPC: 0.60689 cumulative IPC: 0.51746 (Simulation time: 0 hr 29 min 25 sec) 
Heartbeat CPU  0 instructions:  589000002 cycles:  998652980 heartbeat IPC: 0.53439 cumulative IPC: 0.51749 (Simulation time: 0 hr 29 min 28 sec) 
Heartbeat CPU  0 instructions:  590000002 cycles: 1000745294 heartbeat IPC: 0.47794 cumulative IPC: 0.51740 (Simulation time: 0 hr 29 min 31 sec) 
Heartbeat CPU  0 instructions:  591000001 cycles: 1002803654 heartbeat IPC: 0.48582 cumulative IPC: 0.51733 (Simulation time: 0 hr 29 min 35 sec) 
Heartbeat CPU  0 instructions:  592000000 cycles: 1005098021 heartbeat IPC: 0.43585 cumulative IPC: 0.51714 (Simulation time: 0 hr 29 min 38 sec) 
Heartbeat CPU  0 instructions:  593000003 cycles: 1008841917 heartbeat IPC: 0.26710 cumulative IPC: 0.51616 (Simulation time: 0 hr 29 min 42 sec) 
Heartbeat CPU  0 instructions:  594000003 cycles: 1012439963 heartbeat IPC: 0.27793 cumulative IPC: 0.51526 (Simulation time: 0 hr 29 min 46 sec) 
Heartbeat CPU  0 instructions:  595000000 cycles: 1015085823 heartbeat IPC: 0.37795 cumulative IPC: 0.51488 (Simulation time: 0 hr 29 min 50 sec) 
Heartbeat CPU  0 instructions:  596000000 cycles: 1017698817 heartbeat IPC: 0.38270 cumulative IPC: 0.51453 (Simulation time: 0 hr 29 min 53 sec) 
Heartbeat CPU  0 instructions:  597000003 cycles: 1020577897 heartbeat IPC: 0.34733 cumulative IPC: 0.51403 (Simulation time: 0 hr 29 min 57 sec) 
Heartbeat CPU  0 instructions:  598000003 cycles: 1023333162 heartbeat IPC: 0.36294 cumulative IPC: 0.51360 (Simulation time: 0 hr 30 min 0 sec) 
Heartbeat CPU  0 instructions:  599000003 cycles: 1026519370 heartbeat IPC: 0.31385 cumulative IPC: 0.51294 (Simulation time: 0 hr 30 min 4 sec) 
Heartbeat CPU  0 instructions:  600000000 cycles: 1030525138 heartbeat IPC: 0.24964 cumulative IPC: 0.51186 (Simulation time: 0 hr 30 min 8 sec) 
Finished CPU 0 instructions: 500000003 cycles: 976820270 cumulative IPC: 0.51186 (Simulation time: 0 hr 30 min 8 sec) 

ChampSim completed all CPUs

[ROI Statistics]
Core_0_instructions 500000003
Core_0_cycles 976820270
Core_0_IPC 0.51186

Core_0_branch_prediction_accuracy 99.13980
Core_0_branch_MPKI 0.20639
Core_0_average_ROB_occupancy_at_mispredict 243.37257

Core_0_L1D_total_access 146161857
Core_0_L1D_total_hit 140843906
Core_0_L1D_total_miss 5317951
Core_0_L1D_loads 134354132
Core_0_L1D_load_hit 130336372
Core_0_L1D_load_miss 4017760
Core_0_L1D_RFOs 11807725
Core_0_L1D_RFO_hit 10507534
Core_0_L1D_RFO_miss 1300191
Core_0_L1D_prefetches 0
Core_0_L1D_prefetch_hit 0
Core_0_L1D_prefetch_miss 0
Core_0_L1D_writebacks 0
Core_0_L1D_writeback_hit 0
Core_0_L1D_writeback_miss 0
Core_0_L1D_prefetch_requested 0
Core_0_L1D_prefetch_dropped 0
Core_0_L1D_prefetch_issued 0
Core_0_L1D_prefetch_filled 0
Core_0_L1D_prefetch_useful 0
Core_0_L1D_prefetch_useless 0
Core_0_L1D_prefetch_late 0
Core_0_L1D_average_miss_latency 669.30692

Core_0_L1D_rq_access 197261073
Core_0_L1D_rq_forward 0
Core_0_L1D_rq_merged 61663463
Core_0_L1D_rq_to_cache 135597610
Core_0_L1D_rq_full 0

Core_0_L1D_wq_access 16646357
Core_0_L1D_wq_forward 0
Core_0_L1D_wq_merged 0
Core_0_L1D_wq_to_cache 16646357
Core_0_L1D_wq_full 10838890

Core_0_L1D_pq_access 0
Core_0_L1D_pq_forward 0
Core_0_L1D_pq_merged 0
Core_0_L1D_pq_to_cache 0
Core_0_L1D_pq_full 0

Core_0_L1D_acc_epochs 1002229
Core_0_L1D_acc_level_0 1002229
Core_0_L1D_acc_level_1 0
Core_0_L1D_acc_level_2 0
Core_0_L1D_acc_level_3 0
Core_0_L1D_acc_level_4 0
Core_0_L1D_acc_level_5 0
Core_0_L1D_acc_level_6 0
Core_0_L1D_acc_level_7 0
Core_0_L1D_acc_level_8 0
Core_0_L1D_acc_level_9 0

Core_0_L1I_total_access 120961447
Core_0_L1I_total_hit 120961149
Core_0_L1I_total_miss 298
Core_0_L1I_loads 120961447
Core_0_L1I_load_hit 120961149
Core_0_L1I_load_miss 298
Core_0_L1I_RFOs 0
Core_0_L1I_RFO_hit 0
Core_0_L1I_RFO_miss 0
Core_0_L1I_prefetches 0
Core_0_L1I_prefetch_hit 0
Core_0_L1I_prefetch_miss 0
Core_0_L1I_writebacks 0
Core_0_L1I_writeback_hit 0
Core_0_L1I_writeback_miss 0
Core_0_L1I_prefetch_requested 0
Core_0_L1I_prefetch_dropped 0
Core_0_L1I_prefetch_issued 0
Core_0_L1I_prefetch_filled 0
Core_0_L1I_prefetch_useful 0
Core_0_L1I_prefetch_useless 0
Core_0_L1I_prefetch_late 0
Core_0_L1I_average_miss_latency 1477.80872

Core_0_L1I_rq_access 500000208
Core_0_L1I_rq_forward 0
Core_0_L1I_rq_merged 379037699
Core_0_L1I_rq_to_cache 120962509
Core_0_L1I_rq_full 0

Core_0_L1I_wq_access 0
Core_0_L1I_wq_forward 0
Core_0_L1I_wq_merged 0
Core_0_L1I_wq_to_cache 0
Core_0_L1I_wq_full 0

Core_0_L1I_pq_access 0
Core_0_L1I_pq_forward 0
Core_0_L1I_pq_merged 0
Core_0_L1I_pq_to_cache 0
Core_0_L1I_pq_full 0

Core_0_L1I_acc_epochs 1002229
Core_0_L1I_acc_level_0 1002229
Core_0_L1I_acc_level_1 0
Core_0_L1I_acc_level_2 0
Core_0_L1I_acc_level_3 0
Core_0_L1I_acc_level_4 0
Core_0_L1I_acc_level_5 0
Core_0_L1I_acc_level_6 0
Core_0_L1I_acc_level_7 0
Core_0_L1I_acc_level_8 0
Core_0_L1I_acc_level_9 0

Core_0_L2C_total_access 9581806
Core_0_L2C_total_hit 5783751
Core_0_L2C_total_miss 3798055
Core_0_L2C_loads 4018014
Core_0_L2C_load_hit 3585806
Core_0_L2C_load_miss 432208
Core_0_L2C_RFOs 1300063
Core_0_L2C_RFO_hit 499055
Core_0_L2C_RFO_miss 801008
Core_0_L2C_prefetches 2595470
Core_0_L2C_prefetch_hit 31055
Core_0_L2C_prefetch_miss 2564415
Core_0_L2C_writebacks 1668259
Core_0_L2C_writeback_hit 1667835
Core_0_L2C_writeback_miss 424
Core_0_L2C_prefetch_requested 3269780
Core_0_L2C_prefetch_dropped 0
Core_0_L2C_prefetch_issued 3269780
Core_0_L2C_prefetch_filled 3006897
Core_0_L2C_prefetch_useful 2982126
Core_0_L2C_prefetch_useless 24760
Core_0_L2C_prefetch_late 206309
Core_0_L2C_average_miss_latency 3422.47803

Core_0_L2C_rq_access 5318258
Core_0_L2C_rq_forward 0
Core_0_L2C_rq_merged 0
Core_0_L2C_rq_to_cache 5318086
Core_0_L2C_rq_full 0

Core_0_L2C_wq_access 1668259
Core_0_L2C_wq_forward 178
Core_0_L2C_wq_merged 0
Core_0_L2C_wq_to_cache 1668259
Core_0_L2C_wq_full 0

Core_0_L2C_pq_access 3269780
Core_0_L2C_pq_forward 0
Core_0_L2C_pq_merged 5
Core_0_L2C_pq_to_cache 3269769
Core_0_L2C_pq_full 0

Core_0_L2C_acc_epochs 1002229
Core_0_L2C_acc_level_0 539848
Core_0_L2C_acc_level_1 95429
Core_0_L2C_acc_level_2 60652
Core_0_L2C_acc_level_3 39397
Core_0_L2C_acc_level_4 23653
Core_0_L2C_acc_level_5 36858
Core_0_L2C_acc_level_6 19724
Core_0_L2C_acc_level_7 17266
Core_0_L2C_acc_level_8 15974
Core_0_L2C_acc_level_9 153428

Core_0_LLC_total_access 4790603
Core_0_LLC_total_hit 884095
Core_0_LLC_total_miss 3906508
Core_0_LLC_loads 225905
Core_0_LLC_load_hit 45005
Core_0_LLC_load_miss 180900
Core_0_LLC_RFOs 801002
Core_0_LLC_RFO_hit 90877
Core_0_LLC_RFO_miss 710125
Core_0_LLC_prefetches 2795753
Core_0_LLC_prefetch_hit 429194
Core_0_LLC_prefetch_miss 2366559
Core_0_LLC_writebacks 967943
Core_0_LLC_writeback_hit 319019
Core_0_LLC_writeback_miss 648924
Core_0_LLC_prefetch_requested 0
Core_0_LLC_prefetch_dropped 0
Core_0_LLC_prefetch_issued 0
Core_0_LLC_prefetch_filled 2808966
Core_0_LLC_prefetch_useful 23697
Core_0_LLC_prefetch_useless 2776371
Core_0_LLC_prefetch_late 31
Core_0_LLC_average_miss_latency 3517.77131

Core_0_LLC_rq_access 1026916
Core_0_LLC_rq_forward 0
Core_0_LLC_rq_merged 0
Core_0_LLC_rq_to_cache 1026916
Core_0_LLC_rq_full 0

Core_0_LLC_wq_access 967943
Core_0_LLC_wq_forward 0
Core_0_LLC_wq_merged 0
Core_0_LLC_wq_to_cache 967943
Core_0_LLC_wq_full 31411

Core_0_LLC_pq_access 3238293
Core_0_LLC_pq_forward 0
Core_0_LLC_pq_merged 0
Core_0_LLC_pq_to_cache 3238293
Core_0_LLC_pq_full 0

Core_0_LLC_acc_epochs 1006373
Core_0_LLC_acc_level_0 995586
Core_0_LLC_acc_level_1 3999
Core_0_LLC_acc_level_2 2268
Core_0_LLC_acc_level_3 1278
Core_0_LLC_acc_level_4 730
Core_0_LLC_acc_level_5 963
Core_0_LLC_acc_level_6 331
Core_0_LLC_acc_level_7 280
Core_0_LLC_acc_level_8 223
Core_0_LLC_acc_level_9 715

Core_0_major_page_fault 0
Core_0_minor_page_fault 14596

[Bingo] PHT Access: 112516
[Bingo] PHT Hit PC+Addr: 1584
[Bingo] PHT Hit PC+Offs: 107077
[Bingo] PHT Miss: 3855
[Bingo] Prefetch PC+Addr: 0
[Bingo] Prefetch PC+Offs: 0
[Bingo] Useful PC+Addr: 0
[Bingo] Useful PC+Offs: 0
[Bingo] Useless PC+Addr: 0
[Bingo] Useless PC+Offs: 0
[Bingo] L1 Prefetch per Region: 0.00000
[Bingo] L2 Prefetch per Region: 31.27931
[Bingo] L3 Prefetch per Region: 0.29719
[Bingo] No Prefetch per Region: 0.42350
[Bingo] Number of Voters Mean: 15.37596
[Bingo] Number of Voters SD: 2.35363

Channel_0_RQ_row_buffer_hit 1925862
Channel_0_RQ_row_buffer_miss 1331722
Channel_0_WQ_row_buffer_hit 205106
Channel_0_WQ_row_buffer_miss 651721
Channel_0_WQ_full 662126
Channel_0_dbus_congested 4162366

avg_congested_cycle 201

DRAM_bw_pochs 4025489
DRAM_bw_level_0 2805644
DRAM_bw_level_1 0
DRAM_bw_level_2 0
DRAM_bw_level_3 1219845
