*************************************************
   ChampSim Multicore Out-of-Order Simulator
   Last compiled: Dec 11 2024 17:59:53
*************************************************
parsing config file: /home/functionmain/桌面/Pythia/config/bingo.ini

trace_0 /home/functionmain/桌面/Pythia/traces/437.leslie3d-271B.champsimtrace.xz
adding L2C_PREFETCHER: Bingo
Initialize SHIP state
warmup_instructions 100000000
simulation_instructions 500000000
champsim_seed 220
measure_ipc 0
measure_ipc_epoch 1000
measure_dram_bw 1
measure_dram_bw_epoch 256
measure_cache_acc 1
measure_cache_acc_epoch 1024
l1d_perfect 0
l2c_perfect 0
llc_perfect 0
l1d_semi_perfect 0
l2c_semi_perfect 0
llc_semi_perfect 0
semi_perfect_cache_page_buffer_size 64

num_cpus 1
cpu_freq 4000
dram_io_freq 4800
page_size 4096
block_size 64
max_read_per_cycle 8
max_fill_per_cycle 1
dram_channels 1
log2_dram_channels 0
dram_ranks 1
dram_banks 8
dram_rows 65536
dram_columns 128
dram_row_size 8
dram_size 4096
dram_pages 1048576

fetch_width 6
decode_width 6
exec_width 4
lq_width 2
sq_width 2
retire_width 4
scheduler_size 128
branch_mispredict_penalty 20
rob_size 256
lq_size 72
sq_size 56
num_instr_destinations_sparc 4
num_instr_destinations 2
num_instr_sources 4

itlb_set 16
itlb_way 8
itlb_rq_size 16
itlb_wq_size 16
itlb_pq_size 0
itlb_mshr_size 8
itlb_latency 1

dtlb_set 16
dtlb_way 4
dtlb_rq_size 16
dtlb_wq_size 16
dtlb_pq_size 0
dtlb_mshr_size 8
dtlb_latency 1

stlb_set 128
stlb_way 12
stlb_rq_size 32
stlb_wq_size 32
stlb_pq_size 0
stlb_mshr_size 16
stlb_latency 8

l1i_size 32
l1i_set 64
l1i_way 8
l1i_rq_size 64
l1i_wq_size 64
l1i_pq_size 8
l1i_mshr_size 8
l1i_latency 1

l1d_size 32
l1d_set 64
l1d_way 8
l1d_rq_size 64
l1d_wq_size 64
l1d_pq_size 8
l1d_mshr_size 16
l1d_latency 4

l2c_size 256
l2c_set 512
l2c_way 8
l2c_rq_size 32
l2c_wq_size 32
l2c_pq_size 32
l2c_mshr_size 32
l2c_latency 10

llc_size 2048
llc_set 2048
llc_way 16
llc_rq_size 32
llc_wq_size 32
llc_pq_size 32
llc_mshr_size 64
llc_latency 20

dram_channel_width 8
dram_wq_size 64
dram_rq_size 64
tRP 15
tRCD 15
tCAS 12.5
dram_dbus_turn_around_time 30
dram_write_high_wm 56
dram_write_low_wm 48
min_dram_writes_per_switch 16
dram_mtps 4800
dram_dbus_return_time 6

bingo_region_size 2048
bingo_pattern_len 32
bingo_pc_width 16
bingo_min_addr_width 5
bingo_max_addr_width 16
bingo_ft_size 64
bingo_at_size 128
bingo_pht_size 4096
bingo_pht_ways 16
bingo_pf_streamer_size 128
bingo_debug_level 0
bingo_l1d_thresh 1.01
bingo_l2c_thresh 0.8
bingo_llc_thresh 0.05
bingo_pc_address_fill_level L2


Heartbeat CPU  0 instructions:    1000002 cycles:     516704 heartbeat IPC: 1.93535 cumulative IPC: 1.93535 (Simulation time: 0 hr 0 min 2 sec) 
Heartbeat CPU  0 instructions:    2000001 cycles:    1031913 heartbeat IPC: 1.94096 cumulative IPC: 1.93815 (Simulation time: 0 hr 0 min 4 sec) 
Heartbeat CPU  0 instructions:    3000003 cycles:    1547048 heartbeat IPC: 1.94124 cumulative IPC: 1.93918 (Simulation time: 0 hr 0 min 6 sec) 
Heartbeat CPU  0 instructions:    4000000 cycles:    2061797 heartbeat IPC: 1.94269 cumulative IPC: 1.94006 (Simulation time: 0 hr 0 min 9 sec) 
Heartbeat CPU  0 instructions:    5000001 cycles:    2576690 heartbeat IPC: 1.94215 cumulative IPC: 1.94047 (Simulation time: 0 hr 0 min 11 sec) 
Heartbeat CPU  0 instructions:    6000001 cycles:    3091533 heartbeat IPC: 1.94234 cumulative IPC: 1.94079 (Simulation time: 0 hr 0 min 13 sec) 
Heartbeat CPU  0 instructions:    7000003 cycles:    3606756 heartbeat IPC: 1.94091 cumulative IPC: 1.94080 (Simulation time: 0 hr 0 min 15 sec) 
Heartbeat CPU  0 instructions:    8000000 cycles:    4121819 heartbeat IPC: 1.94150 cumulative IPC: 1.94089 (Simulation time: 0 hr 0 min 17 sec) 
Heartbeat CPU  0 instructions:    9000000 cycles:    4636574 heartbeat IPC: 1.94267 cumulative IPC: 1.94109 (Simulation time: 0 hr 0 min 19 sec) 
Heartbeat CPU  0 instructions:   10000003 cycles:    5151530 heartbeat IPC: 1.94192 cumulative IPC: 1.94117 (Simulation time: 0 hr 0 min 21 sec) 
Heartbeat CPU  0 instructions:   11000000 cycles:    5666523 heartbeat IPC: 1.94177 cumulative IPC: 1.94123 (Simulation time: 0 hr 0 min 23 sec) 
Heartbeat CPU  0 instructions:   12000000 cycles:    6181190 heartbeat IPC: 1.94300 cumulative IPC: 1.94137 (Simulation time: 0 hr 0 min 25 sec) 
Heartbeat CPU  0 instructions:   13000001 cycles:    6696166 heartbeat IPC: 1.94184 cumulative IPC: 1.94141 (Simulation time: 0 hr 0 min 27 sec) 
Heartbeat CPU  0 instructions:   14000002 cycles:    7211356 heartbeat IPC: 1.94103 cumulative IPC: 1.94138 (Simulation time: 0 hr 0 min 29 sec) 
Heartbeat CPU  0 instructions:   15000000 cycles:    7726190 heartbeat IPC: 1.94237 cumulative IPC: 1.94145 (Simulation time: 0 hr 0 min 31 sec) 
Heartbeat CPU  0 instructions:   16000000 cycles:    8241183 heartbeat IPC: 1.94177 cumulative IPC: 1.94147 (Simulation time: 0 hr 0 min 33 sec) 
Heartbeat CPU  0 instructions:   17000003 cycles:    8756331 heartbeat IPC: 1.94120 cumulative IPC: 1.94145 (Simulation time: 0 hr 0 min 35 sec) 
Heartbeat CPU  0 instructions:   18000002 cycles:    9270917 heartbeat IPC: 1.94331 cumulative IPC: 1.94156 (Simulation time: 0 hr 0 min 37 sec) 
Heartbeat CPU  0 instructions:   19000003 cycles:    9785902 heartbeat IPC: 1.94181 cumulative IPC: 1.94157 (Simulation time: 0 hr 0 min 40 sec) 
Heartbeat CPU  0 instructions:   20000000 cycles:   10300919 heartbeat IPC: 1.94168 cumulative IPC: 1.94157 (Simulation time: 0 hr 0 min 42 sec) 
Heartbeat CPU  0 instructions:   21000001 cycles:   10815827 heartbeat IPC: 1.94210 cumulative IPC: 1.94160 (Simulation time: 0 hr 0 min 44 sec) 
Heartbeat CPU  0 instructions:   22000000 cycles:   11330802 heartbeat IPC: 1.94184 cumulative IPC: 1.94161 (Simulation time: 0 hr 0 min 46 sec) 
Heartbeat CPU  0 instructions:   23000003 cycles:   11845919 heartbeat IPC: 1.94131 cumulative IPC: 1.94160 (Simulation time: 0 hr 0 min 48 sec) 
Heartbeat CPU  0 instructions:   24000000 cycles:   12360701 heartbeat IPC: 1.94256 cumulative IPC: 1.94164 (Simulation time: 0 hr 0 min 50 sec) 
Heartbeat CPU  0 instructions:   25000000 cycles:   12875479 heartbeat IPC: 1.94258 cumulative IPC: 1.94168 (Simulation time: 0 hr 0 min 52 sec) 
Heartbeat CPU  0 instructions:   26000003 cycles:   13390417 heartbeat IPC: 1.94199 cumulative IPC: 1.94169 (Simulation time: 0 hr 0 min 54 sec) 
Heartbeat CPU  0 instructions:   27000002 cycles:   13905233 heartbeat IPC: 1.94244 cumulative IPC: 1.94172 (Simulation time: 0 hr 0 min 56 sec) 
Heartbeat CPU  0 instructions:   28000000 cycles:   14419979 heartbeat IPC: 1.94270 cumulative IPC: 1.94175 (Simulation time: 0 hr 0 min 58 sec) 
Heartbeat CPU  0 instructions:   29000000 cycles:   14934919 heartbeat IPC: 1.94197 cumulative IPC: 1.94176 (Simulation time: 0 hr 1 min 0 sec) 
Heartbeat CPU  0 instructions:   30000002 cycles:   15449856 heartbeat IPC: 1.94199 cumulative IPC: 1.94177 (Simulation time: 0 hr 1 min 2 sec) 
Heartbeat CPU  0 instructions:   31000001 cycles:   15964535 heartbeat IPC: 1.94296 cumulative IPC: 1.94180 (Simulation time: 0 hr 1 min 4 sec) 
Heartbeat CPU  0 instructions:   32000000 cycles:   16479967 heartbeat IPC: 1.94012 cumulative IPC: 1.94175 (Simulation time: 0 hr 1 min 6 sec) 
Heartbeat CPU  0 instructions:   33000000 cycles:   16994919 heartbeat IPC: 1.94193 cumulative IPC: 1.94176 (Simulation time: 0 hr 1 min 9 sec) 
Heartbeat CPU  0 instructions:   34000001 cycles:   17509654 heartbeat IPC: 1.94275 cumulative IPC: 1.94179 (Simulation time: 0 hr 1 min 11 sec) 
Heartbeat CPU  0 instructions:   35000000 cycles:   18024729 heartbeat IPC: 1.94146 cumulative IPC: 1.94178 (Simulation time: 0 hr 1 min 13 sec) 
Heartbeat CPU  0 instructions:   36000000 cycles:   18539735 heartbeat IPC: 1.94172 cumulative IPC: 1.94178 (Simulation time: 0 hr 1 min 15 sec) 
Heartbeat CPU  0 instructions:   37000001 cycles:   19054575 heartbeat IPC: 1.94235 cumulative IPC: 1.94179 (Simulation time: 0 hr 1 min 17 sec) 
Heartbeat CPU  0 instructions:   38000000 cycles:   19569592 heartbeat IPC: 1.94168 cumulative IPC: 1.94179 (Simulation time: 0 hr 1 min 19 sec) 
Heartbeat CPU  0 instructions:   39000002 cycles:   20084718 heartbeat IPC: 1.94128 cumulative IPC: 1.94177 (Simulation time: 0 hr 1 min 21 sec) 
Heartbeat CPU  0 instructions:   40000000 cycles:   20599472 heartbeat IPC: 1.94267 cumulative IPC: 1.94180 (Simulation time: 0 hr 1 min 23 sec) 
Heartbeat CPU  0 instructions:   41000000 cycles:   21114325 heartbeat IPC: 1.94230 cumulative IPC: 1.94181 (Simulation time: 0 hr 1 min 25 sec) 
Heartbeat CPU  0 instructions:   42000000 cycles:   21629350 heartbeat IPC: 1.94165 cumulative IPC: 1.94181 (Simulation time: 0 hr 1 min 27 sec) 
Heartbeat CPU  0 instructions:   43000003 cycles:   22143988 heartbeat IPC: 1.94312 cumulative IPC: 1.94184 (Simulation time: 0 hr 1 min 29 sec) 
Heartbeat CPU  0 instructions:   44000000 cycles:   22658953 heartbeat IPC: 1.94187 cumulative IPC: 1.94184 (Simulation time: 0 hr 1 min 31 sec) 
Heartbeat CPU  0 instructions:   45000003 cycles:   23174197 heartbeat IPC: 1.94083 cumulative IPC: 1.94182 (Simulation time: 0 hr 1 min 33 sec) 
Heartbeat CPU  0 instructions:   46000001 cycles:   23689041 heartbeat IPC: 1.94233 cumulative IPC: 1.94183 (Simulation time: 0 hr 1 min 36 sec) 
Heartbeat CPU  0 instructions:   47000000 cycles:   24203910 heartbeat IPC: 1.94224 cumulative IPC: 1.94184 (Simulation time: 0 hr 1 min 38 sec) 
Heartbeat CPU  0 instructions:   48000000 cycles:   24719300 heartbeat IPC: 1.94028 cumulative IPC: 1.94180 (Simulation time: 0 hr 1 min 40 sec) 
Heartbeat CPU  0 instructions:   49000000 cycles:   25234260 heartbeat IPC: 1.94190 cumulative IPC: 1.94180 (Simulation time: 0 hr 1 min 42 sec) 
Heartbeat CPU  0 instructions:   50000000 cycles:   25749105 heartbeat IPC: 1.94233 cumulative IPC: 1.94182 (Simulation time: 0 hr 1 min 44 sec) 
Heartbeat CPU  0 instructions:   51000003 cycles:   26264128 heartbeat IPC: 1.94167 cumulative IPC: 1.94181 (Simulation time: 0 hr 1 min 46 sec) 
Heartbeat CPU  0 instructions:   52000000 cycles:   26778904 heartbeat IPC: 1.94259 cumulative IPC: 1.94183 (Simulation time: 0 hr 1 min 48 sec) 
Heartbeat CPU  0 instructions:   53000001 cycles:   27293861 heartbeat IPC: 1.94191 cumulative IPC: 1.94183 (Simulation time: 0 hr 1 min 50 sec) 
Heartbeat CPU  0 instructions:   54000003 cycles:   27808996 heartbeat IPC: 1.94124 cumulative IPC: 1.94182 (Simulation time: 0 hr 1 min 52 sec) 
Heartbeat CPU  0 instructions:   55000003 cycles:   28323808 heartbeat IPC: 1.94246 cumulative IPC: 1.94183 (Simulation time: 0 hr 1 min 54 sec) 
Heartbeat CPU  0 instructions:   56000000 cycles:   28838444 heartbeat IPC: 1.94312 cumulative IPC: 1.94185 (Simulation time: 0 hr 1 min 56 sec) 
Heartbeat CPU  0 instructions:   57000002 cycles:   29379913 heartbeat IPC: 1.84683 cumulative IPC: 1.94010 (Simulation time: 0 hr 1 min 58 sec) 
Heartbeat CPU  0 instructions:   58000001 cycles:   29927069 heartbeat IPC: 1.82763 cumulative IPC: 1.93804 (Simulation time: 0 hr 2 min 0 sec) 
Heartbeat CPU  0 instructions:   59000001 cycles:   30474179 heartbeat IPC: 1.82779 cumulative IPC: 1.93607 (Simulation time: 0 hr 2 min 2 sec) 
Heartbeat CPU  0 instructions:   60000000 cycles:   31021441 heartbeat IPC: 1.82728 cumulative IPC: 1.93415 (Simulation time: 0 hr 2 min 4 sec) 
Heartbeat CPU  0 instructions:   61000003 cycles:   31568591 heartbeat IPC: 1.82766 cumulative IPC: 1.93230 (Simulation time: 0 hr 2 min 6 sec) 
Heartbeat CPU  0 instructions:   62000003 cycles:   32115578 heartbeat IPC: 1.82820 cumulative IPC: 1.93053 (Simulation time: 0 hr 2 min 8 sec) 
Heartbeat CPU  0 instructions:   63000003 cycles:   32662728 heartbeat IPC: 1.82765 cumulative IPC: 1.92880 (Simulation time: 0 hr 2 min 10 sec) 
Heartbeat CPU  0 instructions:   64000000 cycles:   33209674 heartbeat IPC: 1.82833 cumulative IPC: 1.92715 (Simulation time: 0 hr 2 min 12 sec) 
Heartbeat CPU  0 instructions:   65000002 cycles:   33752408 heartbeat IPC: 1.84253 cumulative IPC: 1.92579 (Simulation time: 0 hr 2 min 15 sec) 
Heartbeat CPU  0 instructions:   66000002 cycles:   34283989 heartbeat IPC: 1.88118 cumulative IPC: 1.92510 (Simulation time: 0 hr 2 min 17 sec) 
Heartbeat CPU  0 instructions:   67000001 cycles:   34815949 heartbeat IPC: 1.87984 cumulative IPC: 1.92441 (Simulation time: 0 hr 2 min 19 sec) 
Heartbeat CPU  0 instructions:   68000000 cycles:   35347596 heartbeat IPC: 1.88095 cumulative IPC: 1.92375 (Simulation time: 0 hr 2 min 21 sec) 
Heartbeat CPU  0 instructions:   69000003 cycles:   35879468 heartbeat IPC: 1.88016 cumulative IPC: 1.92311 (Simulation time: 0 hr 2 min 23 sec) 
Heartbeat CPU  0 instructions:   70000000 cycles:   36411227 heartbeat IPC: 1.88055 cumulative IPC: 1.92248 (Simulation time: 0 hr 2 min 25 sec) 
Heartbeat CPU  0 instructions:   71000000 cycles:   36943028 heartbeat IPC: 1.88040 cumulative IPC: 1.92188 (Simulation time: 0 hr 2 min 27 sec) 
Heartbeat CPU  0 instructions:   72000000 cycles:   37474713 heartbeat IPC: 1.88081 cumulative IPC: 1.92130 (Simulation time: 0 hr 2 min 29 sec) 
Heartbeat CPU  0 instructions:   73000000 cycles:   38006640 heartbeat IPC: 1.87996 cumulative IPC: 1.92072 (Simulation time: 0 hr 2 min 31 sec) 
Heartbeat CPU  0 instructions:   74000001 cycles:   38537296 heartbeat IPC: 1.88446 cumulative IPC: 1.92022 (Simulation time: 0 hr 2 min 33 sec) 
Heartbeat CPU  0 instructions:   75000001 cycles:   39068895 heartbeat IPC: 1.88112 cumulative IPC: 1.91969 (Simulation time: 0 hr 2 min 35 sec) 
Heartbeat CPU  0 instructions:   76000000 cycles:   39600086 heartbeat IPC: 1.88256 cumulative IPC: 1.91919 (Simulation time: 0 hr 2 min 37 sec) 
Heartbeat CPU  0 instructions:   77000003 cycles:   40131739 heartbeat IPC: 1.88093 cumulative IPC: 1.91868 (Simulation time: 0 hr 2 min 39 sec) 
Heartbeat CPU  0 instructions:   78000002 cycles:   40662974 heartbeat IPC: 1.88240 cumulative IPC: 1.91821 (Simulation time: 0 hr 2 min 41 sec) 
Heartbeat CPU  0 instructions:   79000000 cycles:   41194576 heartbeat IPC: 1.88110 cumulative IPC: 1.91773 (Simulation time: 0 hr 2 min 43 sec) 
Heartbeat CPU  0 instructions:   80000000 cycles:   41725806 heartbeat IPC: 1.88242 cumulative IPC: 1.91728 (Simulation time: 0 hr 2 min 45 sec) 
Heartbeat CPU  0 instructions:   81000003 cycles:   42257418 heartbeat IPC: 1.88108 cumulative IPC: 1.91682 (Simulation time: 0 hr 2 min 47 sec) 
Heartbeat CPU  0 instructions:   82000003 cycles:   42788693 heartbeat IPC: 1.88226 cumulative IPC: 1.91639 (Simulation time: 0 hr 2 min 49 sec) 
Heartbeat CPU  0 instructions:   83000000 cycles:   43376728 heartbeat IPC: 1.70057 cumulative IPC: 1.91347 (Simulation time: 0 hr 2 min 51 sec) 
Heartbeat CPU  0 instructions:   84000000 cycles:   43984108 heartbeat IPC: 1.64642 cumulative IPC: 1.90978 (Simulation time: 0 hr 2 min 54 sec) 
Heartbeat CPU  0 instructions:   85000001 cycles:   44591744 heartbeat IPC: 1.64572 cumulative IPC: 1.90618 (Simulation time: 0 hr 2 min 56 sec) 
Heartbeat CPU  0 instructions:   86000001 cycles:   45199193 heartbeat IPC: 1.64623 cumulative IPC: 1.90269 (Simulation time: 0 hr 2 min 59 sec) 
Heartbeat CPU  0 instructions:   87000002 cycles:   45806740 heartbeat IPC: 1.64596 cumulative IPC: 1.89928 (Simulation time: 0 hr 3 min 1 sec) 
Heartbeat CPU  0 instructions:   88000000 cycles:   46414398 heartbeat IPC: 1.64566 cumulative IPC: 1.89596 (Simulation time: 0 hr 3 min 4 sec) 
Heartbeat CPU  0 instructions:   89000002 cycles:   47022109 heartbeat IPC: 1.64552 cumulative IPC: 1.89273 (Simulation time: 0 hr 3 min 6 sec) 
Heartbeat CPU  0 instructions:   90000003 cycles:   47629540 heartbeat IPC: 1.64628 cumulative IPC: 1.88958 (Simulation time: 0 hr 3 min 9 sec) 
Heartbeat CPU  0 instructions:   91000000 cycles:   48237060 heartbeat IPC: 1.64603 cumulative IPC: 1.88652 (Simulation time: 0 hr 3 min 11 sec) 
Heartbeat CPU  0 instructions:   92000000 cycles:   48844510 heartbeat IPC: 1.64623 cumulative IPC: 1.88353 (Simulation time: 0 hr 3 min 14 sec) 
Heartbeat CPU  0 instructions:   93000000 cycles:   49452113 heartbeat IPC: 1.64581 cumulative IPC: 1.88061 (Simulation time: 0 hr 3 min 16 sec) 
Heartbeat CPU  0 instructions:   94000001 cycles:   50059568 heartbeat IPC: 1.64621 cumulative IPC: 1.87776 (Simulation time: 0 hr 3 min 19 sec) 
Heartbeat CPU  0 instructions:   95000003 cycles:   50667004 heartbeat IPC: 1.64627 cumulative IPC: 1.87499 (Simulation time: 0 hr 3 min 21 sec) 
Heartbeat CPU  0 instructions:   96000000 cycles:   51274653 heartbeat IPC: 1.64568 cumulative IPC: 1.87227 (Simulation time: 0 hr 3 min 24 sec) 
Heartbeat CPU  0 instructions:   97000000 cycles:   51882369 heartbeat IPC: 1.64551 cumulative IPC: 1.86961 (Simulation time: 0 hr 3 min 26 sec) 
Heartbeat CPU  0 instructions:   98000002 cycles:   52489929 heartbeat IPC: 1.64593 cumulative IPC: 1.86702 (Simulation time: 0 hr 3 min 29 sec) 
Heartbeat CPU  0 instructions:   99000003 cycles:   53097480 heartbeat IPC: 1.64595 cumulative IPC: 1.86450 (Simulation time: 0 hr 3 min 31 sec) 
Heartbeat CPU  0 instructions:  100000000 cycles:   53704889 heartbeat IPC: 1.64633 cumulative IPC: 1.86203 (Simulation time: 0 hr 3 min 34 sec) 

Warmup complete CPU  0 instructions:  100000002 cycles:   53704890 (Simulation time: 0 hr 3 min 34 sec) 

Heartbeat CPU  0 instructions:  101000003 cycles:   54805319 heartbeat IPC: 0.90874 cumulative IPC: 0.90874 (Simulation time: 0 hr 3 min 37 sec) 
Heartbeat CPU  0 instructions:  102000000 cycles:   55930143 heartbeat IPC: 0.88903 cumulative IPC: 0.89877 (Simulation time: 0 hr 3 min 40 sec) 
Heartbeat CPU  0 instructions:  103000000 cycles:   57023568 heartbeat IPC: 0.91456 cumulative IPC: 0.90397 (Simulation time: 0 hr 3 min 42 sec) 
Heartbeat CPU  0 instructions:  104000000 cycles:   58127682 heartbeat IPC: 0.90570 cumulative IPC: 0.90441 (Simulation time: 0 hr 3 min 45 sec) 
Heartbeat CPU  0 instructions:  105000001 cycles:   59214306 heartbeat IPC: 0.92028 cumulative IPC: 0.90754 (Simulation time: 0 hr 3 min 48 sec) 
Heartbeat CPU  0 instructions:  106000001 cycles:   60343948 heartbeat IPC: 0.88524 cumulative IPC: 0.90374 (Simulation time: 0 hr 3 min 51 sec) 
Heartbeat CPU  0 instructions:  107000002 cycles:   61436309 heartbeat IPC: 0.91545 cumulative IPC: 0.90540 (Simulation time: 0 hr 3 min 54 sec) 
Heartbeat CPU  0 instructions:  108000000 cycles:   62539757 heartbeat IPC: 0.90625 cumulative IPC: 0.90550 (Simulation time: 0 hr 3 min 57 sec) 
Heartbeat CPU  0 instructions:  109000002 cycles:   63635552 heartbeat IPC: 0.91258 cumulative IPC: 0.90628 (Simulation time: 0 hr 4 min 0 sec) 
Heartbeat CPU  0 instructions:  110000003 cycles:   64760382 heartbeat IPC: 0.88902 cumulative IPC: 0.90453 (Simulation time: 0 hr 4 min 3 sec) 
Heartbeat CPU  0 instructions:  111000000 cycles:   65858781 heartbeat IPC: 0.91041 cumulative IPC: 0.90506 (Simulation time: 0 hr 4 min 6 sec) 
Heartbeat CPU  0 instructions:  112000000 cycles:   66957525 heartbeat IPC: 0.91013 cumulative IPC: 0.90548 (Simulation time: 0 hr 4 min 9 sec) 
Heartbeat CPU  0 instructions:  113000000 cycles:   68060401 heartbeat IPC: 0.90672 cumulative IPC: 0.90558 (Simulation time: 0 hr 4 min 11 sec) 
Heartbeat CPU  0 instructions:  114000001 cycles:   69174080 heartbeat IPC: 0.89793 cumulative IPC: 0.90502 (Simulation time: 0 hr 4 min 14 sec) 
Heartbeat CPU  0 instructions:  115000002 cycles:   70276662 heartbeat IPC: 0.90696 cumulative IPC: 0.90515 (Simulation time: 0 hr 4 min 17 sec) 
Heartbeat CPU  0 instructions:  116000000 cycles:   71374049 heartbeat IPC: 0.91125 cumulative IPC: 0.90553 (Simulation time: 0 hr 4 min 20 sec) 
Heartbeat CPU  0 instructions:  117000001 cycles:   72471433 heartbeat IPC: 0.91126 cumulative IPC: 0.90587 (Simulation time: 0 hr 4 min 23 sec) 
Heartbeat CPU  0 instructions:  118000002 cycles:   73569528 heartbeat IPC: 0.91067 cumulative IPC: 0.90613 (Simulation time: 0 hr 4 min 26 sec) 
Heartbeat CPU  0 instructions:  119000003 cycles:   74683934 heartbeat IPC: 0.89734 cumulative IPC: 0.90567 (Simulation time: 0 hr 4 min 29 sec) 
Heartbeat CPU  0 instructions:  120000000 cycles:   75785709 heartbeat IPC: 0.90762 cumulative IPC: 0.90576 (Simulation time: 0 hr 4 min 32 sec) 
Heartbeat CPU  0 instructions:  121000003 cycles:   77222556 heartbeat IPC: 0.69597 cumulative IPC: 0.89295 (Simulation time: 0 hr 4 min 35 sec) 
Heartbeat CPU  0 instructions:  122000002 cycles:   78228013 heartbeat IPC: 0.99457 cumulative IPC: 0.89711 (Simulation time: 0 hr 4 min 37 sec) 
Heartbeat CPU  0 instructions:  123000002 cycles:   79082976 heartbeat IPC: 1.16964 cumulative IPC: 0.90629 (Simulation time: 0 hr 4 min 40 sec) 
Heartbeat CPU  0 instructions:  124000000 cycles:   79944123 heartbeat IPC: 1.16124 cumulative IPC: 0.91466 (Simulation time: 0 hr 4 min 42 sec) 
Heartbeat CPU  0 instructions:  125000000 cycles:   80824592 heartbeat IPC: 1.13576 cumulative IPC: 0.92184 (Simulation time: 0 hr 4 min 45 sec) 
Heartbeat CPU  0 instructions:  126000001 cycles:   81674423 heartbeat IPC: 1.17671 cumulative IPC: 0.92958 (Simulation time: 0 hr 4 min 47 sec) 
Heartbeat CPU  0 instructions:  127000002 cycles:   82531337 heartbeat IPC: 1.16698 cumulative IPC: 0.93664 (Simulation time: 0 hr 4 min 50 sec) 
Heartbeat CPU  0 instructions:  128000000 cycles:   83385547 heartbeat IPC: 1.17067 cumulative IPC: 0.94338 (Simulation time: 0 hr 4 min 52 sec) 
Heartbeat CPU  0 instructions:  129000003 cycles:   84251670 heartbeat IPC: 1.15457 cumulative IPC: 0.94936 (Simulation time: 0 hr 4 min 55 sec) 
Heartbeat CPU  0 instructions:  130000003 cycles:   85112801 heartbeat IPC: 1.16126 cumulative IPC: 0.95517 (Simulation time: 0 hr 4 min 57 sec) 
Heartbeat CPU  0 instructions:  131000000 cycles:   85990155 heartbeat IPC: 1.13979 cumulative IPC: 0.96019 (Simulation time: 0 hr 5 min 0 sec) 
Heartbeat CPU  0 instructions:  132000000 cycles:   86834620 heartbeat IPC: 1.18418 cumulative IPC: 0.96590 (Simulation time: 0 hr 5 min 2 sec) 
Heartbeat CPU  0 instructions:  133000002 cycles:   87683346 heartbeat IPC: 1.17824 cumulative IPC: 0.97120 (Simulation time: 0 hr 5 min 5 sec) 
Heartbeat CPU  0 instructions:  134000002 cycles:   88527338 heartbeat IPC: 1.18485 cumulative IPC: 0.97638 (Simulation time: 0 hr 5 min 7 sec) 
Heartbeat CPU  0 instructions:  135000000 cycles:   89372543 heartbeat IPC: 1.18314 cumulative IPC: 0.98128 (Simulation time: 0 hr 5 min 10 sec) 
Heartbeat CPU  0 instructions:  136000000 cycles:   90217859 heartbeat IPC: 1.18299 cumulative IPC: 0.98595 (Simulation time: 0 hr 5 min 12 sec) 
Heartbeat CPU  0 instructions:  137000000 cycles:   91060815 heartbeat IPC: 1.18630 cumulative IPC: 0.99047 (Simulation time: 0 hr 5 min 15 sec) 
Heartbeat CPU  0 instructions:  138000003 cycles:   91915494 heartbeat IPC: 1.17003 cumulative IPC: 0.99449 (Simulation time: 0 hr 5 min 17 sec) 
Heartbeat CPU  0 instructions:  139000001 cycles:   92775818 heartbeat IPC: 1.16235 cumulative IPC: 0.99818 (Simulation time: 0 hr 5 min 20 sec) 
Heartbeat CPU  0 instructions:  140000000 cycles:   93635631 heartbeat IPC: 1.16304 cumulative IPC: 1.00173 (Simulation time: 0 hr 5 min 22 sec) 
Heartbeat CPU  0 instructions:  141000000 cycles:   94492888 heartbeat IPC: 1.16651 cumulative IPC: 1.00520 (Simulation time: 0 hr 5 min 25 sec) 
Heartbeat CPU  0 instructions:  142000000 cycles:   95378588 heartbeat IPC: 1.12905 cumulative IPC: 1.00783 (Simulation time: 0 hr 5 min 27 sec) 
Heartbeat CPU  0 instructions:  143000001 cycles:   96232133 heartbeat IPC: 1.17159 cumulative IPC: 1.01112 (Simulation time: 0 hr 5 min 30 sec) 
Heartbeat CPU  0 instructions:  144000000 cycles:   97076926 heartbeat IPC: 1.18372 cumulative IPC: 1.01448 (Simulation time: 0 hr 5 min 32 sec) 
Heartbeat CPU  0 instructions:  145000003 cycles:   97919352 heartbeat IPC: 1.18705 cumulative IPC: 1.01777 (Simulation time: 0 hr 5 min 35 sec) 
Heartbeat CPU  0 instructions:  146000001 cycles:   98766557 heartbeat IPC: 1.18035 cumulative IPC: 1.02082 (Simulation time: 0 hr 5 min 37 sec) 
Heartbeat CPU  0 instructions:  147000002 cycles:   99612876 heartbeat IPC: 1.18159 cumulative IPC: 1.02379 (Simulation time: 0 hr 5 min 40 sec) 
Heartbeat CPU  0 instructions:  148000000 cycles:  100458374 heartbeat IPC: 1.18273 cumulative IPC: 1.02666 (Simulation time: 0 hr 5 min 42 sec) 
Heartbeat CPU  0 instructions:  149000000 cycles:  101315269 heartbeat IPC: 1.16700 cumulative IPC: 1.02919 (Simulation time: 0 hr 5 min 45 sec) 
Heartbeat CPU  0 instructions:  150000003 cycles:  102170642 heartbeat IPC: 1.16908 cumulative IPC: 1.03166 (Simulation time: 0 hr 5 min 48 sec) 
Heartbeat CPU  0 instructions:  151000001 cycles:  103020144 heartbeat IPC: 1.17716 cumulative IPC: 1.03416 (Simulation time: 0 hr 5 min 50 sec) 
Heartbeat CPU  0 instructions:  152000000 cycles:  103900658 heartbeat IPC: 1.13570 cumulative IPC: 1.03594 (Simulation time: 0 hr 5 min 53 sec) 
Heartbeat CPU  0 instructions:  153000001 cycles:  104747593 heartbeat IPC: 1.18073 cumulative IPC: 1.03835 (Simulation time: 0 hr 5 min 55 sec) 
Heartbeat CPU  0 instructions:  154000003 cycles:  105593490 heartbeat IPC: 1.18218 cumulative IPC: 1.04069 (Simulation time: 0 hr 5 min 58 sec) 
Heartbeat CPU  0 instructions:  155000003 cycles:  106441964 heartbeat IPC: 1.17859 cumulative IPC: 1.04291 (Simulation time: 0 hr 6 min 0 sec) 
Heartbeat CPU  0 instructions:  156000000 cycles:  107287840 heartbeat IPC: 1.18220 cumulative IPC: 1.04511 (Simulation time: 0 hr 6 min 3 sec) 
Heartbeat CPU  0 instructions:  157000000 cycles:  108138926 heartbeat IPC: 1.17497 cumulative IPC: 1.04714 (Simulation time: 0 hr 6 min 5 sec) 
Heartbeat CPU  0 instructions:  158000002 cycles:  108987059 heartbeat IPC: 1.17906 cumulative IPC: 1.04916 (Simulation time: 0 hr 6 min 8 sec) 
Heartbeat CPU  0 instructions:  159000002 cycles:  109840827 heartbeat IPC: 1.17128 cumulative IPC: 1.05102 (Simulation time: 0 hr 6 min 10 sec) 
Heartbeat CPU  0 instructions:  160000000 cycles:  110701303 heartbeat IPC: 1.16215 cumulative IPC: 1.05270 (Simulation time: 0 hr 6 min 13 sec) 
Heartbeat CPU  0 instructions:  161000003 cycles:  111558828 heartbeat IPC: 1.16615 cumulative IPC: 1.05438 (Simulation time: 0 hr 6 min 15 sec) 
Heartbeat CPU  0 instructions:  162000000 cycles:  112404792 heartbeat IPC: 1.18208 cumulative IPC: 1.05622 (Simulation time: 0 hr 6 min 18 sec) 
Heartbeat CPU  0 instructions:  163000001 cycles:  113291606 heartbeat IPC: 1.12763 cumulative IPC: 1.05728 (Simulation time: 0 hr 6 min 20 sec) 
Heartbeat CPU  0 instructions:  164000000 cycles:  114141640 heartbeat IPC: 1.17642 cumulative IPC: 1.05896 (Simulation time: 0 hr 6 min 23 sec) 
Heartbeat CPU  0 instructions:  165000001 cycles:  114993344 heartbeat IPC: 1.17412 cumulative IPC: 1.06056 (Simulation time: 0 hr 6 min 25 sec) 
Heartbeat CPU  0 instructions:  166000003 cycles:  115844822 heartbeat IPC: 1.17443 cumulative IPC: 1.06212 (Simulation time: 0 hr 6 min 28 sec) 
Heartbeat CPU  0 instructions:  167000001 cycles:  116698011 heartbeat IPC: 1.17207 cumulative IPC: 1.06361 (Simulation time: 0 hr 6 min 30 sec) 
Heartbeat CPU  0 instructions:  168000000 cycles:  117542000 heartbeat IPC: 1.18485 cumulative IPC: 1.06521 (Simulation time: 0 hr 6 min 33 sec) 
Heartbeat CPU  0 instructions:  169000001 cycles:  118395581 heartbeat IPC: 1.17154 cumulative IPC: 1.06661 (Simulation time: 0 hr 6 min 35 sec) 
Heartbeat CPU  0 instructions:  170000000 cycles:  119243103 heartbeat IPC: 1.17991 cumulative IPC: 1.06808 (Simulation time: 0 hr 6 min 38 sec) 
Heartbeat CPU  0 instructions:  171000000 cycles:  120097831 heartbeat IPC: 1.16996 cumulative IPC: 1.06939 (Simulation time: 0 hr 6 min 40 sec) 
Heartbeat CPU  0 instructions:  172000000 cycles:  120957700 heartbeat IPC: 1.16297 cumulative IPC: 1.07059 (Simulation time: 0 hr 6 min 43 sec) 
Heartbeat CPU  0 instructions:  173000002 cycles:  121854209 heartbeat IPC: 1.11544 cumulative IPC: 1.07118 (Simulation time: 0 hr 6 min 45 sec) 
Heartbeat CPU  0 instructions:  174000002 cycles:  122720470 heartbeat IPC: 1.15439 cumulative IPC: 1.07222 (Simulation time: 0 hr 6 min 48 sec) 
Heartbeat CPU  0 instructions:  175000000 cycles:  123573355 heartbeat IPC: 1.17249 cumulative IPC: 1.07345 (Simulation time: 0 hr 6 min 50 sec) 
Heartbeat CPU  0 instructions:  176000000 cycles:  124440157 heartbeat IPC: 1.15367 cumulative IPC: 1.07443 (Simulation time: 0 hr 6 min 53 sec) 
Heartbeat CPU  0 instructions:  177000001 cycles:  125304931 heartbeat IPC: 1.15637 cumulative IPC: 1.07542 (Simulation time: 0 hr 6 min 55 sec) 
Heartbeat CPU  0 instructions:  178000002 cycles:  126161897 heartbeat IPC: 1.16691 cumulative IPC: 1.07650 (Simulation time: 0 hr 6 min 58 sec) 
Heartbeat CPU  0 instructions:  179000001 cycles:  127015032 heartbeat IPC: 1.17215 cumulative IPC: 1.07761 (Simulation time: 0 hr 7 min 0 sec) 
Heartbeat CPU  0 instructions:  180000000 cycles:  127875775 heartbeat IPC: 1.16179 cumulative IPC: 1.07859 (Simulation time: 0 hr 7 min 3 sec) 
Heartbeat CPU  0 instructions:  181000000 cycles:  128727088 heartbeat IPC: 1.17466 cumulative IPC: 1.07968 (Simulation time: 0 hr 7 min 5 sec) 
Heartbeat CPU  0 instructions:  182000000 cycles:  129585148 heartbeat IPC: 1.16542 cumulative IPC: 1.08065 (Simulation time: 0 hr 7 min 8 sec) 
Heartbeat CPU  0 instructions:  183000003 cycles:  130448830 heartbeat IPC: 1.15784 cumulative IPC: 1.08152 (Simulation time: 0 hr 7 min 10 sec) 
Heartbeat CPU  0 instructions:  184000000 cycles:  131342911 heartbeat IPC: 1.11846 cumulative IPC: 1.08194 (Simulation time: 0 hr 7 min 13 sec) 
Heartbeat CPU  0 instructions:  185000002 cycles:  132200678 heartbeat IPC: 1.16582 cumulative IPC: 1.08286 (Simulation time: 0 hr 7 min 15 sec) 
Heartbeat CPU  0 instructions:  186000003 cycles:  133051798 heartbeat IPC: 1.17492 cumulative IPC: 1.08385 (Simulation time: 0 hr 7 min 18 sec) 
Heartbeat CPU  0 instructions:  187000003 cycles:  133906687 heartbeat IPC: 1.16974 cumulative IPC: 1.08476 (Simulation time: 0 hr 7 min 20 sec) 
Heartbeat CPU  0 instructions:  188000000 cycles:  134761051 heartbeat IPC: 1.17046 cumulative IPC: 1.08567 (Simulation time: 0 hr 7 min 23 sec) 
Heartbeat CPU  0 instructions:  189000001 cycles:  135618648 heartbeat IPC: 1.16605 cumulative IPC: 1.08651 (Simulation time: 0 hr 7 min 25 sec) 
Heartbeat CPU  0 instructions:  190000003 cycles:  136463420 heartbeat IPC: 1.18375 cumulative IPC: 1.08750 (Simulation time: 0 hr 7 min 28 sec) 
Heartbeat CPU  0 instructions:  191000001 cycles:  137320898 heartbeat IPC: 1.16621 cumulative IPC: 1.08831 (Simulation time: 0 hr 7 min 30 sec) 
Heartbeat CPU  0 instructions:  192000000 cycles:  138171883 heartbeat IPC: 1.17511 cumulative IPC: 1.08918 (Simulation time: 0 hr 7 min 33 sec) 
Heartbeat CPU  0 instructions:  193000000 cycles:  139029328 heartbeat IPC: 1.16626 cumulative IPC: 1.08996 (Simulation time: 0 hr 7 min 35 sec) 
Heartbeat CPU  0 instructions:  194000003 cycles:  139922523 heartbeat IPC: 1.11958 cumulative IPC: 1.09026 (Simulation time: 0 hr 7 min 38 sec) 
Heartbeat CPU  0 instructions:  195000002 cycles:  140773791 heartbeat IPC: 1.17472 cumulative IPC: 1.09109 (Simulation time: 0 hr 7 min 41 sec) 
Heartbeat CPU  0 instructions:  196000000 cycles:  141626965 heartbeat IPC: 1.17209 cumulative IPC: 1.09188 (Simulation time: 0 hr 7 min 43 sec) 
Heartbeat CPU  0 instructions:  197000000 cycles:  142481949 heartbeat IPC: 1.16961 cumulative IPC: 1.09262 (Simulation time: 0 hr 7 min 46 sec) 
Heartbeat CPU  0 instructions:  198000001 cycles:  143331172 heartbeat IPC: 1.17755 cumulative IPC: 1.09343 (Simulation time: 0 hr 7 min 48 sec) 
Heartbeat CPU  0 instructions:  199000003 cycles:  144191202 heartbeat IPC: 1.16275 cumulative IPC: 1.09409 (Simulation time: 0 hr 7 min 51 sec) 
Heartbeat CPU  0 instructions:  200000000 cycles:  145044240 heartbeat IPC: 1.17228 cumulative IPC: 1.09482 (Simulation time: 0 hr 7 min 53 sec) 
Heartbeat CPU  0 instructions:  201000002 cycles:  145891521 heartbeat IPC: 1.18025 cumulative IPC: 1.09560 (Simulation time: 0 hr 7 min 56 sec) 
Heartbeat CPU  0 instructions:  202000000 cycles:  146748312 heartbeat IPC: 1.16714 cumulative IPC: 1.09626 (Simulation time: 0 hr 7 min 58 sec) 
Heartbeat CPU  0 instructions:  203000000 cycles:  147596933 heartbeat IPC: 1.17838 cumulative IPC: 1.09700 (Simulation time: 0 hr 8 min 1 sec) 
Heartbeat CPU  0 instructions:  204000000 cycles:  148460721 heartbeat IPC: 1.15769 cumulative IPC: 1.09756 (Simulation time: 0 hr 8 min 3 sec) 
Heartbeat CPU  0 instructions:  205000000 cycles:  149361853 heartbeat IPC: 1.10972 cumulative IPC: 1.09767 (Simulation time: 0 hr 8 min 6 sec) 
Heartbeat CPU  0 instructions:  206000003 cycles:  150215966 heartbeat IPC: 1.17081 cumulative IPC: 1.09832 (Simulation time: 0 hr 8 min 8 sec) 
Heartbeat CPU  0 instructions:  207000003 cycles:  151076697 heartbeat IPC: 1.16180 cumulative IPC: 1.09888 (Simulation time: 0 hr 8 min 11 sec) 
Heartbeat CPU  0 instructions:  208000000 cycles:  151940016 heartbeat IPC: 1.15832 cumulative IPC: 1.09940 (Simulation time: 0 hr 8 min 13 sec) 
Heartbeat CPU  0 instructions:  209000000 cycles:  152795472 heartbeat IPC: 1.16897 cumulative IPC: 1.10000 (Simulation time: 0 hr 8 min 16 sec) 
Heartbeat CPU  0 instructions:  210000003 cycles:  153656680 heartbeat IPC: 1.16116 cumulative IPC: 1.10053 (Simulation time: 0 hr 8 min 18 sec) 
Heartbeat CPU  0 instructions:  211000002 cycles:  154516721 heartbeat IPC: 1.16273 cumulative IPC: 1.10106 (Simulation time: 0 hr 8 min 21 sec) 
Heartbeat CPU  0 instructions:  212000000 cycles:  155374628 heartbeat IPC: 1.16563 cumulative IPC: 1.10161 (Simulation time: 0 hr 8 min 23 sec) 
Heartbeat CPU  0 instructions:  213000002 cycles:  156237873 heartbeat IPC: 1.15842 cumulative IPC: 1.10208 (Simulation time: 0 hr 8 min 26 sec) 
Heartbeat CPU  0 instructions:  214000001 cycles:  157099040 heartbeat IPC: 1.16121 cumulative IPC: 1.10258 (Simulation time: 0 hr 8 min 28 sec) 
Heartbeat CPU  0 instructions:  215000002 cycles:  157988766 heartbeat IPC: 1.12394 cumulative IPC: 1.10276 (Simulation time: 0 hr 8 min 31 sec) 
Heartbeat CPU  0 instructions:  216000000 cycles:  158854319 heartbeat IPC: 1.15533 cumulative IPC: 1.10319 (Simulation time: 0 hr 8 min 33 sec) 
Heartbeat CPU  0 instructions:  217000002 cycles:  159713688 heartbeat IPC: 1.16365 cumulative IPC: 1.10368 (Simulation time: 0 hr 8 min 36 sec) 
Heartbeat CPU  0 instructions:  218000000 cycles:  160573074 heartbeat IPC: 1.16362 cumulative IPC: 1.10416 (Simulation time: 0 hr 8 min 39 sec) 
Heartbeat CPU  0 instructions:  219000002 cycles:  161430685 heartbeat IPC: 1.16603 cumulative IPC: 1.10466 (Simulation time: 0 hr 8 min 41 sec) 
Heartbeat CPU  0 instructions:  220000000 cycles:  162282781 heartbeat IPC: 1.17357 cumulative IPC: 1.10520 (Simulation time: 0 hr 8 min 44 sec) 
Heartbeat CPU  0 instructions:  221000002 cycles:  163139844 heartbeat IPC: 1.16678 cumulative IPC: 1.10568 (Simulation time: 0 hr 8 min 46 sec) 
Heartbeat CPU  0 instructions:  222000000 cycles:  163987834 heartbeat IPC: 1.17926 cumulative IPC: 1.10625 (Simulation time: 0 hr 8 min 49 sec) 
Heartbeat CPU  0 instructions:  223000002 cycles:  164843895 heartbeat IPC: 1.16814 cumulative IPC: 1.10672 (Simulation time: 0 hr 8 min 51 sec) 
Heartbeat CPU  0 instructions:  224000000 cycles:  165700469 heartbeat IPC: 1.16744 cumulative IPC: 1.10719 (Simulation time: 0 hr 8 min 54 sec) 
Heartbeat CPU  0 instructions:  225000000 cycles:  166589390 heartbeat IPC: 1.12496 cumulative IPC: 1.10733 (Simulation time: 0 hr 8 min 56 sec) 
Heartbeat CPU  0 instructions:  226000000 cycles:  167449615 heartbeat IPC: 1.16249 cumulative IPC: 1.10774 (Simulation time: 0 hr 8 min 59 sec) 
Heartbeat CPU  0 instructions:  227000001 cycles:  168303282 heartbeat IPC: 1.17142 cumulative IPC: 1.10822 (Simulation time: 0 hr 9 min 1 sec) 
Heartbeat CPU  0 instructions:  228000000 cycles:  169157203 heartbeat IPC: 1.17107 cumulative IPC: 1.10868 (Simulation time: 0 hr 9 min 4 sec) 
Heartbeat CPU  0 instructions:  229000001 cycles:  170015418 heartbeat IPC: 1.16521 cumulative IPC: 1.10910 (Simulation time: 0 hr 9 min 6 sec) 
Heartbeat CPU  0 instructions:  230000001 cycles:  170872179 heartbeat IPC: 1.16719 cumulative IPC: 1.10952 (Simulation time: 0 hr 9 min 9 sec) 
Heartbeat CPU  0 instructions:  231000002 cycles:  171721672 heartbeat IPC: 1.17717 cumulative IPC: 1.11001 (Simulation time: 0 hr 9 min 11 sec) 
Heartbeat CPU  0 instructions:  232000000 cycles:  172574732 heartbeat IPC: 1.17225 cumulative IPC: 1.11046 (Simulation time: 0 hr 9 min 14 sec) 
Heartbeat CPU  0 instructions:  233000000 cycles:  173425719 heartbeat IPC: 1.17511 cumulative IPC: 1.11092 (Simulation time: 0 hr 9 min 16 sec) 
Heartbeat CPU  0 instructions:  234000001 cycles:  174280929 heartbeat IPC: 1.16930 cumulative IPC: 1.11133 (Simulation time: 0 hr 9 min 19 sec) 
Heartbeat CPU  0 instructions:  235000001 cycles:  175138991 heartbeat IPC: 1.16542 cumulative IPC: 1.11171 (Simulation time: 0 hr 9 min 21 sec) 
Heartbeat CPU  0 instructions:  236000000 cycles:  176040015 heartbeat IPC: 1.10985 cumulative IPC: 1.11170 (Simulation time: 0 hr 9 min 24 sec) 
Heartbeat CPU  0 instructions:  237000000 cycles:  176898353 heartbeat IPC: 1.16504 cumulative IPC: 1.11207 (Simulation time: 0 hr 9 min 26 sec) 
Heartbeat CPU  0 instructions:  238000000 cycles:  177753094 heartbeat IPC: 1.16995 cumulative IPC: 1.11247 (Simulation time: 0 hr 9 min 29 sec) 
Heartbeat CPU  0 instructions:  239000003 cycles:  178600746 heartbeat IPC: 1.17973 cumulative IPC: 1.11293 (Simulation time: 0 hr 9 min 31 sec) 
Heartbeat CPU  0 instructions:  240000000 cycles:  179453141 heartbeat IPC: 1.17316 cumulative IPC: 1.11334 (Simulation time: 0 hr 9 min 34 sec) 
Heartbeat CPU  0 instructions:  241000001 cycles:  180306826 heartbeat IPC: 1.17139 cumulative IPC: 1.11373 (Simulation time: 0 hr 9 min 36 sec) 
Heartbeat CPU  0 instructions:  242000001 cycles:  181159433 heartbeat IPC: 1.17287 cumulative IPC: 1.11412 (Simulation time: 0 hr 9 min 39 sec) 
Heartbeat CPU  0 instructions:  243000001 cycles:  182009278 heartbeat IPC: 1.17669 cumulative IPC: 1.11454 (Simulation time: 0 hr 9 min 41 sec) 
Heartbeat CPU  0 instructions:  244000000 cycles:  182864965 heartbeat IPC: 1.16865 cumulative IPC: 1.11490 (Simulation time: 0 hr 9 min 44 sec) 
Heartbeat CPU  0 instructions:  245000002 cycles:  183711755 heartbeat IPC: 1.18093 cumulative IPC: 1.11533 (Simulation time: 0 hr 9 min 46 sec) 
Heartbeat CPU  0 instructions:  246000003 cycles:  184604073 heartbeat IPC: 1.12068 cumulative IPC: 1.11536 (Simulation time: 0 hr 9 min 49 sec) 
Heartbeat CPU  0 instructions:  247000003 cycles:  185474528 heartbeat IPC: 1.14882 cumulative IPC: 1.11558 (Simulation time: 0 hr 9 min 51 sec) 
Heartbeat CPU  0 instructions:  248000000 cycles:  186321800 heartbeat IPC: 1.18025 cumulative IPC: 1.11600 (Simulation time: 0 hr 9 min 54 sec) 
Heartbeat CPU  0 instructions:  249000003 cycles:  187179563 heartbeat IPC: 1.16583 cumulative IPC: 1.11632 (Simulation time: 0 hr 9 min 56 sec) 
Heartbeat CPU  0 instructions:  250000003 cycles:  188029152 heartbeat IPC: 1.17704 cumulative IPC: 1.11670 (Simulation time: 0 hr 9 min 59 sec) 
Heartbeat CPU  0 instructions:  251000003 cycles:  188887431 heartbeat IPC: 1.16512 cumulative IPC: 1.11701 (Simulation time: 0 hr 10 min 1 sec) 
Heartbeat CPU  0 instructions:  252000000 cycles:  189741769 heartbeat IPC: 1.17049 cumulative IPC: 1.11734 (Simulation time: 0 hr 10 min 4 sec) 
Heartbeat CPU  0 instructions:  253000001 cycles:  190596376 heartbeat IPC: 1.17013 cumulative IPC: 1.11767 (Simulation time: 0 hr 10 min 6 sec) 
Heartbeat CPU  0 instructions:  254000000 cycles:  191441973 heartbeat IPC: 1.18260 cumulative IPC: 1.11807 (Simulation time: 0 hr 10 min 9 sec) 
Heartbeat CPU  0 instructions:  255000002 cycles:  192297258 heartbeat IPC: 1.16920 cumulative IPC: 1.11839 (Simulation time: 0 hr 10 min 11 sec) 
Heartbeat CPU  0 instructions:  256000000 cycles:  193147448 heartbeat IPC: 1.17621 cumulative IPC: 1.11874 (Simulation time: 0 hr 10 min 14 sec) 
Heartbeat CPU  0 instructions:  257000002 cycles:  194029704 heartbeat IPC: 1.13346 cumulative IPC: 1.11883 (Simulation time: 0 hr 10 min 17 sec) 
Heartbeat CPU  0 instructions:  258000003 cycles:  194885622 heartbeat IPC: 1.16834 cumulative IPC: 1.11913 (Simulation time: 0 hr 10 min 19 sec) 
Heartbeat CPU  0 instructions:  259000002 cycles:  195730318 heartbeat IPC: 1.18386 cumulative IPC: 1.11952 (Simulation time: 0 hr 10 min 22 sec) 
Heartbeat CPU  0 instructions:  260000000 cycles:  196586405 heartbeat IPC: 1.16810 cumulative IPC: 1.11981 (Simulation time: 0 hr 10 min 24 sec) 
Heartbeat CPU  0 instructions:  261000001 cycles:  197438445 heartbeat IPC: 1.17366 cumulative IPC: 1.12013 (Simulation time: 0 hr 10 min 27 sec) 
Heartbeat CPU  0 instructions:  262000002 cycles:  198292358 heartbeat IPC: 1.17108 cumulative IPC: 1.12043 (Simulation time: 0 hr 10 min 29 sec) 
Heartbeat CPU  0 instructions:  263000001 cycles:  199147733 heartbeat IPC: 1.16908 cumulative IPC: 1.12072 (Simulation time: 0 hr 10 min 31 sec) 
Heartbeat CPU  0 instructions:  264000000 cycles:  200003825 heartbeat IPC: 1.16810 cumulative IPC: 1.12099 (Simulation time: 0 hr 10 min 34 sec) 
Heartbeat CPU  0 instructions:  265000002 cycles:  200849584 heartbeat IPC: 1.18237 cumulative IPC: 1.12135 (Simulation time: 0 hr 10 min 36 sec) 
Heartbeat CPU  0 instructions:  266000000 cycles:  201705253 heartbeat IPC: 1.16867 cumulative IPC: 1.12162 (Simulation time: 0 hr 10 min 39 sec) 
Heartbeat CPU  0 instructions:  267000002 cycles:  202580079 heartbeat IPC: 1.14309 cumulative IPC: 1.12174 (Simulation time: 0 hr 10 min 41 sec) 
Heartbeat CPU  0 instructions:  268000000 cycles:  204001295 heartbeat IPC: 0.70362 cumulative IPC: 1.11779 (Simulation time: 0 hr 10 min 44 sec) 
Heartbeat CPU  0 instructions:  269000002 cycles:  205597662 heartbeat IPC: 0.62642 cumulative IPC: 1.11263 (Simulation time: 0 hr 10 min 47 sec) 
Heartbeat CPU  0 instructions:  270000003 cycles:  206568809 heartbeat IPC: 1.02971 cumulative IPC: 1.11210 (Simulation time: 0 hr 10 min 50 sec) 
Heartbeat CPU  0 instructions:  271000001 cycles:  207551300 heartbeat IPC: 1.01782 cumulative IPC: 1.11150 (Simulation time: 0 hr 10 min 52 sec) 
Heartbeat CPU  0 instructions:  272000000 cycles:  208515695 heartbeat IPC: 1.03692 cumulative IPC: 1.11103 (Simulation time: 0 hr 10 min 55 sec) 
Heartbeat CPU  0 instructions:  273000002 cycles:  209496233 heartbeat IPC: 1.01985 cumulative IPC: 1.11046 (Simulation time: 0 hr 10 min 57 sec) 
Heartbeat CPU  0 instructions:  274000003 cycles:  210466149 heartbeat IPC: 1.03102 cumulative IPC: 1.10997 (Simulation time: 0 hr 11 min 0 sec) 
Heartbeat CPU  0 instructions:  275000000 cycles:  211436583 heartbeat IPC: 1.03046 cumulative IPC: 1.10948 (Simulation time: 0 hr 11 min 3 sec) 
Heartbeat CPU  0 instructions:  276000000 cycles:  212414860 heartbeat IPC: 1.02221 cumulative IPC: 1.10894 (Simulation time: 0 hr 11 min 5 sec) 
Heartbeat CPU  0 instructions:  277000003 cycles:  213384485 heartbeat IPC: 1.03133 cumulative IPC: 1.10847 (Simulation time: 0 hr 11 min 8 sec) 
Heartbeat CPU  0 instructions:  278000003 cycles:  214363461 heartbeat IPC: 1.02148 cumulative IPC: 1.10794 (Simulation time: 0 hr 11 min 10 sec) 
Heartbeat CPU  0 instructions:  279000001 cycles:  215331602 heartbeat IPC: 1.03291 cumulative IPC: 1.10749 (Simulation time: 0 hr 11 min 13 sec) 
Heartbeat CPU  0 instructions:  280000000 cycles:  216311030 heartbeat IPC: 1.02100 cumulative IPC: 1.10697 (Simulation time: 0 hr 11 min 15 sec) 
Heartbeat CPU  0 instructions:  281000001 cycles:  217267034 heartbeat IPC: 1.04602 cumulative IPC: 1.10661 (Simulation time: 0 hr 11 min 18 sec) 
Heartbeat CPU  0 instructions:  282000003 cycles:  218230823 heartbeat IPC: 1.03757 cumulative IPC: 1.10621 (Simulation time: 0 hr 11 min 21 sec) 
Heartbeat CPU  0 instructions:  283000000 cycles:  219191451 heartbeat IPC: 1.04098 cumulative IPC: 1.10583 (Simulation time: 0 hr 11 min 23 sec) 
Heartbeat CPU  0 instructions:  284000000 cycles:  220158466 heartbeat IPC: 1.03411 cumulative IPC: 1.10541 (Simulation time: 0 hr 11 min 26 sec) 
Heartbeat CPU  0 instructions:  285000002 cycles:  221120936 heartbeat IPC: 1.03900 cumulative IPC: 1.10503 (Simulation time: 0 hr 11 min 28 sec) 
Heartbeat CPU  0 instructions:  286000000 cycles:  222082533 heartbeat IPC: 1.03993 cumulative IPC: 1.10466 (Simulation time: 0 hr 11 min 31 sec) 
Heartbeat CPU  0 instructions:  287000000 cycles:  223052272 heartbeat IPC: 1.03121 cumulative IPC: 1.10424 (Simulation time: 0 hr 11 min 34 sec) 
Heartbeat CPU  0 instructions:  288000000 cycles:  224014612 heartbeat IPC: 1.03913 cumulative IPC: 1.10387 (Simulation time: 0 hr 11 min 36 sec) 
Heartbeat CPU  0 instructions:  289000003 cycles:  224977442 heartbeat IPC: 1.03861 cumulative IPC: 1.10350 (Simulation time: 0 hr 11 min 39 sec) 
Heartbeat CPU  0 instructions:  290000000 cycles:  225929513 heartbeat IPC: 1.05034 cumulative IPC: 1.10321 (Simulation time: 0 hr 11 min 41 sec) 
Heartbeat CPU  0 instructions:  291000000 cycles:  226888573 heartbeat IPC: 1.04269 cumulative IPC: 1.10288 (Simulation time: 0 hr 11 min 44 sec) 
Heartbeat CPU  0 instructions:  292000000 cycles:  227845252 heartbeat IPC: 1.04528 cumulative IPC: 1.10256 (Simulation time: 0 hr 11 min 47 sec) 
Heartbeat CPU  0 instructions:  293000000 cycles:  228805020 heartbeat IPC: 1.04192 cumulative IPC: 1.10223 (Simulation time: 0 hr 11 min 49 sec) 
Heartbeat CPU  0 instructions:  294000002 cycles:  229762335 heartbeat IPC: 1.04459 cumulative IPC: 1.10191 (Simulation time: 0 hr 11 min 52 sec) 
Heartbeat CPU  0 instructions:  295000002 cycles:  230715804 heartbeat IPC: 1.04880 cumulative IPC: 1.10163 (Simulation time: 0 hr 11 min 55 sec) 
Heartbeat CPU  0 instructions:  296000000 cycles:  231671999 heartbeat IPC: 1.04581 cumulative IPC: 1.10133 (Simulation time: 0 hr 11 min 57 sec) 
Heartbeat CPU  0 instructions:  297000001 cycles:  232627797 heartbeat IPC: 1.04625 cumulative IPC: 1.10103 (Simulation time: 0 hr 12 min 0 sec) 
Heartbeat CPU  0 instructions:  298000000 cycles:  233587617 heartbeat IPC: 1.04186 cumulative IPC: 1.10072 (Simulation time: 0 hr 12 min 2 sec) 
Heartbeat CPU  0 instructions:  299000003 cycles:  234538152 heartbeat IPC: 1.05204 cumulative IPC: 1.10046 (Simulation time: 0 hr 12 min 5 sec) 
Heartbeat CPU  0 instructions:  300000000 cycles:  235493946 heartbeat IPC: 1.04625 cumulative IPC: 1.10018 (Simulation time: 0 hr 12 min 7 sec) 
Heartbeat CPU  0 instructions:  301000002 cycles:  236449175 heartbeat IPC: 1.04687 cumulative IPC: 1.09990 (Simulation time: 0 hr 12 min 10 sec) 
Heartbeat CPU  0 instructions:  302000002 cycles:  237406576 heartbeat IPC: 1.04449 cumulative IPC: 1.09961 (Simulation time: 0 hr 12 min 13 sec) 
Heartbeat CPU  0 instructions:  303000001 cycles:  238361494 heartbeat IPC: 1.04721 cumulative IPC: 1.09934 (Simulation time: 0 hr 12 min 15 sec) 
Heartbeat CPU  0 instructions:  304000000 cycles:  239318331 heartbeat IPC: 1.04511 cumulative IPC: 1.09906 (Simulation time: 0 hr 12 min 18 sec) 
Heartbeat CPU  0 instructions:  305000000 cycles:  240272958 heartbeat IPC: 1.04753 cumulative IPC: 1.09879 (Simulation time: 0 hr 12 min 20 sec) 
Heartbeat CPU  0 instructions:  306000001 cycles:  241223187 heartbeat IPC: 1.05238 cumulative IPC: 1.09856 (Simulation time: 0 hr 12 min 23 sec) 
Heartbeat CPU  0 instructions:  307000003 cycles:  242175573 heartbeat IPC: 1.05000 cumulative IPC: 1.09831 (Simulation time: 0 hr 12 min 25 sec) 
Heartbeat CPU  0 instructions:  308000000 cycles:  243129334 heartbeat IPC: 1.04848 cumulative IPC: 1.09806 (Simulation time: 0 hr 12 min 28 sec) 
Heartbeat CPU  0 instructions:  309000000 cycles:  244077326 heartbeat IPC: 1.05486 cumulative IPC: 1.09785 (Simulation time: 0 hr 12 min 31 sec) 
Heartbeat CPU  0 instructions:  310000001 cycles:  245027087 heartbeat IPC: 1.05290 cumulative IPC: 1.09762 (Simulation time: 0 hr 12 min 33 sec) 
Heartbeat CPU  0 instructions:  311000001 cycles:  245975445 heartbeat IPC: 1.05445 cumulative IPC: 1.09741 (Simulation time: 0 hr 12 min 36 sec) 
Heartbeat CPU  0 instructions:  312000000 cycles:  246925227 heartbeat IPC: 1.05287 cumulative IPC: 1.09719 (Simulation time: 0 hr 12 min 38 sec) 
Heartbeat CPU  0 instructions:  313000000 cycles:  247876074 heartbeat IPC: 1.05169 cumulative IPC: 1.09697 (Simulation time: 0 hr 12 min 41 sec) 
Heartbeat CPU  0 instructions:  314000001 cycles:  248830112 heartbeat IPC: 1.04818 cumulative IPC: 1.09673 (Simulation time: 0 hr 12 min 44 sec) 
Heartbeat CPU  0 instructions:  315000000 cycles:  249784313 heartbeat IPC: 1.04800 cumulative IPC: 1.09649 (Simulation time: 0 hr 12 min 46 sec) 
Heartbeat CPU  0 instructions:  316000000 cycles:  250739076 heartbeat IPC: 1.04738 cumulative IPC: 1.09626 (Simulation time: 0 hr 12 min 49 sec) 
Heartbeat CPU  0 instructions:  317000001 cycles:  251694285 heartbeat IPC: 1.04689 cumulative IPC: 1.09602 (Simulation time: 0 hr 12 min 51 sec) 
Heartbeat CPU  0 instructions:  318000001 cycles:  252648242 heartbeat IPC: 1.04827 cumulative IPC: 1.09579 (Simulation time: 0 hr 12 min 54 sec) 
Heartbeat CPU  0 instructions:  319000002 cycles:  253606018 heartbeat IPC: 1.04409 cumulative IPC: 1.09554 (Simulation time: 0 hr 12 min 57 sec) 
Heartbeat CPU  0 instructions:  320000000 cycles:  254564213 heartbeat IPC: 1.04363 cumulative IPC: 1.09529 (Simulation time: 0 hr 12 min 59 sec) 
Heartbeat CPU  0 instructions:  321000000 cycles:  255518584 heartbeat IPC: 1.04781 cumulative IPC: 1.09507 (Simulation time: 0 hr 13 min 2 sec) 
Heartbeat CPU  0 instructions:  322000001 cycles:  256473854 heartbeat IPC: 1.04683 cumulative IPC: 1.09484 (Simulation time: 0 hr 13 min 4 sec) 
Heartbeat CPU  0 instructions:  323000000 cycles:  257423088 heartbeat IPC: 1.05348 cumulative IPC: 1.09465 (Simulation time: 0 hr 13 min 7 sec) 
Heartbeat CPU  0 instructions:  324000000 cycles:  258375151 heartbeat IPC: 1.05035 cumulative IPC: 1.09444 (Simulation time: 0 hr 13 min 9 sec) 
Heartbeat CPU  0 instructions:  325000001 cycles:  259329259 heartbeat IPC: 1.04810 cumulative IPC: 1.09423 (Simulation time: 0 hr 13 min 12 sec) 
Heartbeat CPU  0 instructions:  326000000 cycles:  260283357 heartbeat IPC: 1.04811 cumulative IPC: 1.09402 (Simulation time: 0 hr 13 min 15 sec) 
Heartbeat CPU  0 instructions:  327000001 cycles:  261238347 heartbeat IPC: 1.04713 cumulative IPC: 1.09380 (Simulation time: 0 hr 13 min 17 sec) 
Heartbeat CPU  0 instructions:  328000000 cycles:  262192637 heartbeat IPC: 1.04790 cumulative IPC: 1.09359 (Simulation time: 0 hr 13 min 20 sec) 
Heartbeat CPU  0 instructions:  329000001 cycles:  263148050 heartbeat IPC: 1.04667 cumulative IPC: 1.09338 (Simulation time: 0 hr 13 min 22 sec) 
Heartbeat CPU  0 instructions:  330000000 cycles:  264763454 heartbeat IPC: 0.61904 cumulative IPC: 1.08974 (Simulation time: 0 hr 13 min 25 sec) 
Heartbeat CPU  0 instructions:  331000000 cycles:  265632493 heartbeat IPC: 1.15070 cumulative IPC: 1.08999 (Simulation time: 0 hr 13 min 28 sec) 
Heartbeat CPU  0 instructions:  332000000 cycles:  266504610 heartbeat IPC: 1.14664 cumulative IPC: 1.09023 (Simulation time: 0 hr 13 min 30 sec) 
Heartbeat CPU  0 instructions:  333000001 cycles:  267374313 heartbeat IPC: 1.14982 cumulative IPC: 1.09047 (Simulation time: 0 hr 13 min 32 sec) 
Heartbeat CPU  0 instructions:  334000002 cycles:  268246880 heartbeat IPC: 1.14604 cumulative IPC: 1.09070 (Simulation time: 0 hr 13 min 35 sec) 
Heartbeat CPU  0 instructions:  335000002 cycles:  269121162 heartbeat IPC: 1.14380 cumulative IPC: 1.09091 (Simulation time: 0 hr 13 min 37 sec) 
Heartbeat CPU  0 instructions:  336000000 cycles:  269991526 heartbeat IPC: 1.14894 cumulative IPC: 1.09114 (Simulation time: 0 hr 13 min 40 sec) 
Heartbeat CPU  0 instructions:  337000003 cycles:  270864924 heartbeat IPC: 1.14496 cumulative IPC: 1.09136 (Simulation time: 0 hr 13 min 42 sec) 
Heartbeat CPU  0 instructions:  338000000 cycles:  271733805 heartbeat IPC: 1.15090 cumulative IPC: 1.09160 (Simulation time: 0 hr 13 min 44 sec) 
Heartbeat CPU  0 instructions:  339000003 cycles:  273376296 heartbeat IPC: 0.60883 cumulative IPC: 1.08799 (Simulation time: 0 hr 13 min 47 sec) 
Heartbeat CPU  0 instructions:  340000000 cycles:  274232905 heartbeat IPC: 1.16739 cumulative IPC: 1.08830 (Simulation time: 0 hr 13 min 50 sec) 
Heartbeat CPU  0 instructions:  341000000 cycles:  275088905 heartbeat IPC: 1.16822 cumulative IPC: 1.08861 (Simulation time: 0 hr 13 min 52 sec) 
Heartbeat CPU  0 instructions:  342000000 cycles:  275952675 heartbeat IPC: 1.15772 cumulative IPC: 1.08887 (Simulation time: 0 hr 13 min 54 sec) 
Heartbeat CPU  0 instructions:  343000003 cycles:  276808747 heartbeat IPC: 1.16813 cumulative IPC: 1.08918 (Simulation time: 0 hr 13 min 57 sec) 
Heartbeat CPU  0 instructions:  344000000 cycles:  277668451 heartbeat IPC: 1.16319 cumulative IPC: 1.08946 (Simulation time: 0 hr 13 min 59 sec) 
Heartbeat CPU  0 instructions:  345000000 cycles:  278523821 heartbeat IPC: 1.16908 cumulative IPC: 1.08977 (Simulation time: 0 hr 14 min 2 sec) 
Heartbeat CPU  0 instructions:  346000003 cycles:  279381423 heartbeat IPC: 1.16605 cumulative IPC: 1.09006 (Simulation time: 0 hr 14 min 4 sec) 
Heartbeat CPU  0 instructions:  347000002 cycles:  280237158 heartbeat IPC: 1.16858 cumulative IPC: 1.09035 (Simulation time: 0 hr 14 min 6 sec) 
Heartbeat CPU  0 instructions:  348000000 cycles:  281908868 heartbeat IPC: 0.59819 cumulative IPC: 1.08675 (Simulation time: 0 hr 14 min 9 sec) 
Heartbeat CPU  0 instructions:  349000000 cycles:  282796315 heartbeat IPC: 1.12683 cumulative IPC: 1.08690 (Simulation time: 0 hr 14 min 11 sec) 
Heartbeat CPU  0 instructions:  350000003 cycles:  283696356 heartbeat IPC: 1.11106 cumulative IPC: 1.08700 (Simulation time: 0 hr 14 min 14 sec) 
Heartbeat CPU  0 instructions:  351000003 cycles:  284595207 heartbeat IPC: 1.11253 cumulative IPC: 1.08710 (Simulation time: 0 hr 14 min 16 sec) 
Heartbeat CPU  0 instructions:  352000000 cycles:  285486603 heartbeat IPC: 1.12183 cumulative IPC: 1.08723 (Simulation time: 0 hr 14 min 19 sec) 
Heartbeat CPU  0 instructions:  353000000 cycles:  286382781 heartbeat IPC: 1.11585 cumulative IPC: 1.08734 (Simulation time: 0 hr 14 min 21 sec) 
Heartbeat CPU  0 instructions:  354000000 cycles:  287272617 heartbeat IPC: 1.12380 cumulative IPC: 1.08748 (Simulation time: 0 hr 14 min 23 sec) 
Heartbeat CPU  0 instructions:  355000001 cycles:  288157892 heartbeat IPC: 1.12959 cumulative IPC: 1.08764 (Simulation time: 0 hr 14 min 26 sec) 
Heartbeat CPU  0 instructions:  356000000 cycles:  289347565 heartbeat IPC: 0.84057 cumulative IPC: 1.08639 (Simulation time: 0 hr 14 min 29 sec) 
Heartbeat CPU  0 instructions:  357000003 cycles:  290750930 heartbeat IPC: 0.71258 cumulative IPC: 1.08418 (Simulation time: 0 hr 14 min 32 sec) 
Heartbeat CPU  0 instructions:  358000000 cycles:  291853337 heartbeat IPC: 0.90710 cumulative IPC: 1.08336 (Simulation time: 0 hr 14 min 34 sec) 
Heartbeat CPU  0 instructions:  359000002 cycles:  292951928 heartbeat IPC: 0.91026 cumulative IPC: 1.08256 (Simulation time: 0 hr 14 min 37 sec) 
Heartbeat CPU  0 instructions:  360000000 cycles:  294079359 heartbeat IPC: 0.88697 cumulative IPC: 1.08165 (Simulation time: 0 hr 14 min 40 sec) 
Heartbeat CPU  0 instructions:  361000000 cycles:  295178503 heartbeat IPC: 0.90980 cumulative IPC: 1.08086 (Simulation time: 0 hr 14 min 43 sec) 
Heartbeat CPU  0 instructions:  362000000 cycles:  296281478 heartbeat IPC: 0.90664 cumulative IPC: 1.08007 (Simulation time: 0 hr 14 min 46 sec) 
Heartbeat CPU  0 instructions:  363000001 cycles:  297378610 heartbeat IPC: 0.91147 cumulative IPC: 1.07931 (Simulation time: 0 hr 14 min 49 sec) 
Heartbeat CPU  0 instructions:  364000000 cycles:  298479322 heartbeat IPC: 0.90850 cumulative IPC: 1.07854 (Simulation time: 0 hr 14 min 52 sec) 
Heartbeat CPU  0 instructions:  365000002 cycles:  299609263 heartbeat IPC: 0.88500 cumulative IPC: 1.07765 (Simulation time: 0 hr 14 min 55 sec) 
Heartbeat CPU  0 instructions:  366000001 cycles:  300712776 heartbeat IPC: 0.90620 cumulative IPC: 1.07689 (Simulation time: 0 hr 14 min 58 sec) 
Heartbeat CPU  0 instructions:  367000001 cycles:  301813172 heartbeat IPC: 0.90876 cumulative IPC: 1.07614 (Simulation time: 0 hr 15 min 0 sec) 
Heartbeat CPU  0 instructions:  368000000 cycles:  302914709 heartbeat IPC: 0.90782 cumulative IPC: 1.07540 (Simulation time: 0 hr 15 min 3 sec) 
Heartbeat CPU  0 instructions:  369000001 cycles:  304044275 heartbeat IPC: 0.88530 cumulative IPC: 1.07454 (Simulation time: 0 hr 15 min 6 sec) 
Heartbeat CPU  0 instructions:  370000002 cycles:  305145645 heartbeat IPC: 0.90796 cumulative IPC: 1.07381 (Simulation time: 0 hr 15 min 9 sec) 
Heartbeat CPU  0 instructions:  371000002 cycles:  306245969 heartbeat IPC: 0.90882 cumulative IPC: 1.07309 (Simulation time: 0 hr 15 min 12 sec) 
Heartbeat CPU  0 instructions:  372000000 cycles:  307341126 heartbeat IPC: 0.91311 cumulative IPC: 1.07240 (Simulation time: 0 hr 15 min 15 sec) 
Heartbeat CPU  0 instructions:  373000000 cycles:  308469431 heartbeat IPC: 0.88629 cumulative IPC: 1.07158 (Simulation time: 0 hr 15 min 18 sec) 
Heartbeat CPU  0 instructions:  374000003 cycles:  309565509 heartbeat IPC: 0.91235 cumulative IPC: 1.07090 (Simulation time: 0 hr 15 min 21 sec) 
Heartbeat CPU  0 instructions:  375000002 cycles:  310672245 heartbeat IPC: 0.90356 cumulative IPC: 1.07017 (Simulation time: 0 hr 15 min 23 sec) 
Heartbeat CPU  0 instructions:  376000000 cycles:  311774944 heartbeat IPC: 0.90686 cumulative IPC: 1.06948 (Simulation time: 0 hr 15 min 26 sec) 
Heartbeat CPU  0 instructions:  377000001 cycles:  312902772 heartbeat IPC: 0.88666 cumulative IPC: 1.06868 (Simulation time: 0 hr 15 min 29 sec) 
Heartbeat CPU  0 instructions:  378000000 cycles:  314000908 heartbeat IPC: 0.91063 cumulative IPC: 1.06801 (Simulation time: 0 hr 15 min 32 sec) 
Heartbeat CPU  0 instructions:  379000001 cycles:  315106603 heartbeat IPC: 0.90441 cumulative IPC: 1.06732 (Simulation time: 0 hr 15 min 35 sec) 
Heartbeat CPU  0 instructions:  380000000 cycles:  316209016 heartbeat IPC: 0.90710 cumulative IPC: 1.06665 (Simulation time: 0 hr 15 min 38 sec) 
Heartbeat CPU  0 instructions:  381000001 cycles:  317342278 heartbeat IPC: 0.88241 cumulative IPC: 1.06586 (Simulation time: 0 hr 15 min 41 sec) 
Heartbeat CPU  0 instructions:  382000000 cycles:  318441852 heartbeat IPC: 0.90944 cumulative IPC: 1.06521 (Simulation time: 0 hr 15 min 44 sec) 
Heartbeat CPU  0 instructions:  383000000 cycles:  319549625 heartbeat IPC: 0.90271 cumulative IPC: 1.06453 (Simulation time: 0 hr 15 min 46 sec) 
Heartbeat CPU  0 instructions:  384000000 cycles:  320647690 heartbeat IPC: 0.91069 cumulative IPC: 1.06390 (Simulation time: 0 hr 15 min 49 sec) 
Heartbeat CPU  0 instructions:  385000001 cycles:  321767884 heartbeat IPC: 0.89270 cumulative IPC: 1.06318 (Simulation time: 0 hr 15 min 52 sec) 
Heartbeat CPU  0 instructions:  386000001 cycles:  322866512 heartbeat IPC: 0.91023 cumulative IPC: 1.06256 (Simulation time: 0 hr 15 min 55 sec) 
Heartbeat CPU  0 instructions:  387000003 cycles:  323964689 heartbeat IPC: 0.91060 cumulative IPC: 1.06194 (Simulation time: 0 hr 15 min 58 sec) 
Heartbeat CPU  0 instructions:  388000000 cycles:  325069632 heartbeat IPC: 0.90502 cumulative IPC: 1.06130 (Simulation time: 0 hr 16 min 1 sec) 
Heartbeat CPU  0 instructions:  389000002 cycles:  326170610 heartbeat IPC: 0.90829 cumulative IPC: 1.06068 (Simulation time: 0 hr 16 min 4 sec) 
Heartbeat CPU  0 instructions:  390000002 cycles:  327294157 heartbeat IPC: 0.89004 cumulative IPC: 1.05998 (Simulation time: 0 hr 16 min 7 sec) 
Heartbeat CPU  0 instructions:  391000001 cycles:  328392768 heartbeat IPC: 0.91024 cumulative IPC: 1.05938 (Simulation time: 0 hr 16 min 10 sec) 
Heartbeat CPU  0 instructions:  392000000 cycles:  329491285 heartbeat IPC: 0.91032 cumulative IPC: 1.05879 (Simulation time: 0 hr 16 min 12 sec) 
Heartbeat CPU  0 instructions:  393000003 cycles:  330592374 heartbeat IPC: 0.90819 cumulative IPC: 1.05819 (Simulation time: 0 hr 16 min 15 sec) 
Heartbeat CPU  0 instructions:  394000002 cycles:  332108978 heartbeat IPC: 0.65937 cumulative IPC: 1.05602 (Simulation time: 0 hr 16 min 18 sec) 
Heartbeat CPU  0 instructions:  395000001 cycles:  333083925 heartbeat IPC: 1.02570 cumulative IPC: 1.05591 (Simulation time: 0 hr 16 min 21 sec) 
Heartbeat CPU  0 instructions:  396000000 cycles:  333971857 heartbeat IPC: 1.12621 cumulative IPC: 1.05614 (Simulation time: 0 hr 16 min 23 sec) 
Heartbeat CPU  0 instructions:  397000000 cycles:  334858312 heartbeat IPC: 1.12809 cumulative IPC: 1.05636 (Simulation time: 0 hr 16 min 26 sec) 
Heartbeat CPU  0 instructions:  398000001 cycles:  335743791 heartbeat IPC: 1.12933 cumulative IPC: 1.05659 (Simulation time: 0 hr 16 min 29 sec) 
Heartbeat CPU  0 instructions:  399000001 cycles:  336640124 heartbeat IPC: 1.11566 cumulative IPC: 1.05678 (Simulation time: 0 hr 16 min 31 sec) 
Heartbeat CPU  0 instructions:  400000000 cycles:  337524648 heartbeat IPC: 1.13055 cumulative IPC: 1.05701 (Simulation time: 0 hr 16 min 34 sec) 
Heartbeat CPU  0 instructions:  401000001 cycles:  338408371 heartbeat IPC: 1.13158 cumulative IPC: 1.05724 (Simulation time: 0 hr 16 min 36 sec) 
Heartbeat CPU  0 instructions:  402000000 cycles:  339295766 heartbeat IPC: 1.12689 cumulative IPC: 1.05746 (Simulation time: 0 hr 16 min 39 sec) 
Heartbeat CPU  0 instructions:  403000003 cycles:  340447984 heartbeat IPC: 0.86789 cumulative IPC: 1.05669 (Simulation time: 0 hr 16 min 41 sec) 
Heartbeat CPU  0 instructions:  404000000 cycles:  341347863 heartbeat IPC: 1.11126 cumulative IPC: 1.05687 (Simulation time: 0 hr 16 min 44 sec) 
Heartbeat CPU  0 instructions:  405000002 cycles:  342234060 heartbeat IPC: 1.12842 cumulative IPC: 1.05709 (Simulation time: 0 hr 16 min 47 sec) 
Heartbeat CPU  0 instructions:  406000002 cycles:  343119495 heartbeat IPC: 1.12939 cumulative IPC: 1.05731 (Simulation time: 0 hr 16 min 49 sec) 
Heartbeat CPU  0 instructions:  407000003 cycles:  343998861 heartbeat IPC: 1.13718 cumulative IPC: 1.05755 (Simulation time: 0 hr 16 min 52 sec) 
Heartbeat CPU  0 instructions:  408000000 cycles:  344869499 heartbeat IPC: 1.14858 cumulative IPC: 1.05782 (Simulation time: 0 hr 16 min 54 sec) 
Heartbeat CPU  0 instructions:  409000003 cycles:  345740553 heartbeat IPC: 1.14804 cumulative IPC: 1.05809 (Simulation time: 0 hr 16 min 57 sec) 
Heartbeat CPU  0 instructions:  410000002 cycles:  346613018 heartbeat IPC: 1.14618 cumulative IPC: 1.05835 (Simulation time: 0 hr 16 min 59 sec) 
Heartbeat CPU  0 instructions:  411000002 cycles:  347495788 heartbeat IPC: 1.13280 cumulative IPC: 1.05858 (Simulation time: 0 hr 17 min 2 sec) 
Heartbeat CPU  0 instructions:  412000000 cycles:  348375404 heartbeat IPC: 1.13686 cumulative IPC: 1.05881 (Simulation time: 0 hr 17 min 4 sec) 
Heartbeat CPU  0 instructions:  413000000 cycles:  349210205 heartbeat IPC: 1.19789 cumulative IPC: 1.05920 (Simulation time: 0 hr 17 min 7 sec) 
Heartbeat CPU  0 instructions:  414000002 cycles:  350014386 heartbeat IPC: 1.24350 cumulative IPC: 1.05970 (Simulation time: 0 hr 17 min 9 sec) 
Heartbeat CPU  0 instructions:  415000002 cycles:  350924494 heartbeat IPC: 1.09877 cumulative IPC: 1.05982 (Simulation time: 0 hr 17 min 12 sec) 
Heartbeat CPU  0 instructions:  416000000 cycles:  351805106 heartbeat IPC: 1.13557 cumulative IPC: 1.06005 (Simulation time: 0 hr 17 min 14 sec) 
Heartbeat CPU  0 instructions:  417000000 cycles:  352687647 heartbeat IPC: 1.13309 cumulative IPC: 1.06026 (Simulation time: 0 hr 17 min 17 sec) 
Heartbeat CPU  0 instructions:  418000002 cycles:  353565010 heartbeat IPC: 1.13978 cumulative IPC: 1.06049 (Simulation time: 0 hr 17 min 19 sec) 
Heartbeat CPU  0 instructions:  419000002 cycles:  354440696 heartbeat IPC: 1.14196 cumulative IPC: 1.06073 (Simulation time: 0 hr 17 min 22 sec) 
Heartbeat CPU  0 instructions:  420000000 cycles:  355315060 heartbeat IPC: 1.14369 cumulative IPC: 1.06097 (Simulation time: 0 hr 17 min 25 sec) 
Heartbeat CPU  0 instructions:  421000000 cycles:  356192633 heartbeat IPC: 1.13951 cumulative IPC: 1.06120 (Simulation time: 0 hr 17 min 27 sec) 
Heartbeat CPU  0 instructions:  422000001 cycles:  357072379 heartbeat IPC: 1.13669 cumulative IPC: 1.06142 (Simulation time: 0 hr 17 min 30 sec) 
Heartbeat CPU  0 instructions:  423000002 cycles:  357945433 heartbeat IPC: 1.14541 cumulative IPC: 1.06166 (Simulation time: 0 hr 17 min 32 sec) 
Heartbeat CPU  0 instructions:  424000000 cycles:  358755408 heartbeat IPC: 1.23460 cumulative IPC: 1.06212 (Simulation time: 0 hr 17 min 34 sec) 
Heartbeat CPU  0 instructions:  425000003 cycles:  359645611 heartbeat IPC: 1.12334 cumulative IPC: 1.06230 (Simulation time: 0 hr 17 min 37 sec) 
Heartbeat CPU  0 instructions:  426000003 cycles:  360519971 heartbeat IPC: 1.14369 cumulative IPC: 1.06253 (Simulation time: 0 hr 17 min 39 sec) 
Heartbeat CPU  0 instructions:  427000000 cycles:  361396850 heartbeat IPC: 1.14040 cumulative IPC: 1.06275 (Simulation time: 0 hr 17 min 42 sec) 
Heartbeat CPU  0 instructions:  428000000 cycles:  362274648 heartbeat IPC: 1.13921 cumulative IPC: 1.06297 (Simulation time: 0 hr 17 min 45 sec) 
Heartbeat CPU  0 instructions:  429000001 cycles:  363149562 heartbeat IPC: 1.14297 cumulative IPC: 1.06319 (Simulation time: 0 hr 17 min 47 sec) 
Heartbeat CPU  0 instructions:  430000003 cycles:  364018889 heartbeat IPC: 1.15032 cumulative IPC: 1.06344 (Simulation time: 0 hr 17 min 50 sec) 
Heartbeat CPU  0 instructions:  431000000 cycles:  364900768 heartbeat IPC: 1.13394 cumulative IPC: 1.06364 (Simulation time: 0 hr 17 min 52 sec) 
Heartbeat CPU  0 instructions:  432000000 cycles:  365780413 heartbeat IPC: 1.13682 cumulative IPC: 1.06385 (Simulation time: 0 hr 17 min 55 sec) 
Heartbeat CPU  0 instructions:  433000001 cycles:  366661143 heartbeat IPC: 1.13542 cumulative IPC: 1.06405 (Simulation time: 0 hr 17 min 57 sec) 
Heartbeat CPU  0 instructions:  434000001 cycles:  367485179 heartbeat IPC: 1.21354 cumulative IPC: 1.06444 (Simulation time: 0 hr 18 min 0 sec) 
Heartbeat CPU  0 instructions:  435000003 cycles:  368293997 heartbeat IPC: 1.23637 cumulative IPC: 1.06488 (Simulation time: 0 hr 18 min 2 sec) 
Heartbeat CPU  0 instructions:  436000000 cycles:  369230444 heartbeat IPC: 1.06786 cumulative IPC: 1.06489 (Simulation time: 0 hr 18 min 5 sec) 
Heartbeat CPU  0 instructions:  437000001 cycles:  370106693 heartbeat IPC: 1.14123 cumulative IPC: 1.06510 (Simulation time: 0 hr 18 min 7 sec) 
Heartbeat CPU  0 instructions:  438000000 cycles:  370981278 heartbeat IPC: 1.14340 cumulative IPC: 1.06532 (Simulation time: 0 hr 18 min 10 sec) 
Heartbeat CPU  0 instructions:  439000003 cycles:  371854831 heartbeat IPC: 1.14475 cumulative IPC: 1.06554 (Simulation time: 0 hr 18 min 12 sec) 
Heartbeat CPU  0 instructions:  440000000 cycles:  372734160 heartbeat IPC: 1.13723 cumulative IPC: 1.06573 (Simulation time: 0 hr 18 min 15 sec) 
Heartbeat CPU  0 instructions:  441000001 cycles:  373613155 heartbeat IPC: 1.13766 cumulative IPC: 1.06593 (Simulation time: 0 hr 18 min 17 sec) 
Heartbeat CPU  0 instructions:  442000000 cycles:  374491726 heartbeat IPC: 1.13821 cumulative IPC: 1.06613 (Simulation time: 0 hr 18 min 20 sec) 
Heartbeat CPU  0 instructions:  443000003 cycles:  375368859 heartbeat IPC: 1.14008 cumulative IPC: 1.06633 (Simulation time: 0 hr 18 min 22 sec) 
Heartbeat CPU  0 instructions:  444000000 cycles:  376228970 heartbeat IPC: 1.16264 cumulative IPC: 1.06659 (Simulation time: 0 hr 18 min 25 sec) 
Heartbeat CPU  0 instructions:  445000000 cycles:  377036936 heartbeat IPC: 1.23768 cumulative IPC: 1.06701 (Simulation time: 0 hr 18 min 27 sec) 
Heartbeat CPU  0 instructions:  446000000 cycles:  377951177 heartbeat IPC: 1.09380 cumulative IPC: 1.06709 (Simulation time: 0 hr 18 min 30 sec) 
Heartbeat CPU  0 instructions:  447000001 cycles:  378832032 heartbeat IPC: 1.13526 cumulative IPC: 1.06727 (Simulation time: 0 hr 18 min 32 sec) 
Heartbeat CPU  0 instructions:  448000000 cycles:  379704062 heartbeat IPC: 1.14675 cumulative IPC: 1.06749 (Simulation time: 0 hr 18 min 35 sec) 
Heartbeat CPU  0 instructions:  449000001 cycles:  380582772 heartbeat IPC: 1.13803 cumulative IPC: 1.06768 (Simulation time: 0 hr 18 min 37 sec) 
Heartbeat CPU  0 instructions:  450000000 cycles:  381460664 heartbeat IPC: 1.13909 cumulative IPC: 1.06787 (Simulation time: 0 hr 18 min 40 sec) 
Heartbeat CPU  0 instructions:  451000000 cycles:  382340117 heartbeat IPC: 1.13707 cumulative IPC: 1.06805 (Simulation time: 0 hr 18 min 43 sec) 
Heartbeat CPU  0 instructions:  452000000 cycles:  383220751 heartbeat IPC: 1.13555 cumulative IPC: 1.06823 (Simulation time: 0 hr 18 min 45 sec) 
Heartbeat CPU  0 instructions:  453000002 cycles:  384098125 heartbeat IPC: 1.13977 cumulative IPC: 1.06842 (Simulation time: 0 hr 18 min 48 sec) 
Heartbeat CPU  0 instructions:  454000000 cycles:  384976702 heartbeat IPC: 1.13820 cumulative IPC: 1.06861 (Simulation time: 0 hr 18 min 50 sec) 
Heartbeat CPU  0 instructions:  455000002 cycles:  385789819 heartbeat IPC: 1.22984 cumulative IPC: 1.06900 (Simulation time: 0 hr 18 min 52 sec) 
Heartbeat CPU  0 instructions:  456000000 cycles:  386624212 heartbeat IPC: 1.19847 cumulative IPC: 1.06933 (Simulation time: 0 hr 18 min 55 sec) 
Heartbeat CPU  0 instructions:  457000002 cycles:  387543142 heartbeat IPC: 1.08822 cumulative IPC: 1.06938 (Simulation time: 0 hr 18 min 57 sec) 
Heartbeat CPU  0 instructions:  458000000 cycles:  388419183 heartbeat IPC: 1.14150 cumulative IPC: 1.06957 (Simulation time: 0 hr 19 min 0 sec) 
Heartbeat CPU  0 instructions:  459000000 cycles:  389298091 heartbeat IPC: 1.13778 cumulative IPC: 1.06975 (Simulation time: 0 hr 19 min 3 sec) 
Heartbeat CPU  0 instructions:  460000000 cycles:  390176687 heartbeat IPC: 1.13818 cumulative IPC: 1.06993 (Simulation time: 0 hr 19 min 5 sec) 
Heartbeat CPU  0 instructions:  461000000 cycles:  391057762 heartbeat IPC: 1.13498 cumulative IPC: 1.07010 (Simulation time: 0 hr 19 min 8 sec) 
Heartbeat CPU  0 instructions:  462000000 cycles:  391939710 heartbeat IPC: 1.13385 cumulative IPC: 1.07026 (Simulation time: 0 hr 19 min 10 sec) 
Heartbeat CPU  0 instructions:  463000002 cycles:  392817110 heartbeat IPC: 1.13973 cumulative IPC: 1.07044 (Simulation time: 0 hr 19 min 13 sec) 
Heartbeat CPU  0 instructions:  464000000 cycles:  393694682 heartbeat IPC: 1.13951 cumulative IPC: 1.07062 (Simulation time: 0 hr 19 min 15 sec) 
Heartbeat CPU  0 instructions:  465000003 cycles:  394548390 heartbeat IPC: 1.17136 cumulative IPC: 1.07087 (Simulation time: 0 hr 19 min 18 sec) 
Heartbeat CPU  0 instructions:  466000001 cycles:  395357194 heartbeat IPC: 1.23639 cumulative IPC: 1.07126 (Simulation time: 0 hr 19 min 20 sec) 
Heartbeat CPU  0 instructions:  467000000 cycles:  396277768 heartbeat IPC: 1.08628 cumulative IPC: 1.07130 (Simulation time: 0 hr 19 min 23 sec) 
Heartbeat CPU  0 instructions:  468000000 cycles:  397152323 heartbeat IPC: 1.14344 cumulative IPC: 1.07149 (Simulation time: 0 hr 19 min 25 sec) 
Heartbeat CPU  0 instructions:  469000002 cycles:  398032178 heartbeat IPC: 1.13655 cumulative IPC: 1.07165 (Simulation time: 0 hr 19 min 28 sec) 
Heartbeat CPU  0 instructions:  470000003 cycles:  398910786 heartbeat IPC: 1.13817 cumulative IPC: 1.07182 (Simulation time: 0 hr 19 min 30 sec) 
Heartbeat CPU  0 instructions:  471000001 cycles:  399801075 heartbeat IPC: 1.12323 cumulative IPC: 1.07196 (Simulation time: 0 hr 19 min 33 sec) 
Heartbeat CPU  0 instructions:  472000000 cycles:  400677045 heartbeat IPC: 1.14159 cumulative IPC: 1.07213 (Simulation time: 0 hr 19 min 35 sec) 
Heartbeat CPU  0 instructions:  473000000 cycles:  401557284 heartbeat IPC: 1.13606 cumulative IPC: 1.07229 (Simulation time: 0 hr 19 min 38 sec) 
Heartbeat CPU  0 instructions:  474000002 cycles:  402436828 heartbeat IPC: 1.13696 cumulative IPC: 1.07246 (Simulation time: 0 hr 19 min 40 sec) 
Heartbeat CPU  0 instructions:  475000000 cycles:  403331400 heartbeat IPC: 1.11785 cumulative IPC: 1.07257 (Simulation time: 0 hr 19 min 43 sec) 
Heartbeat CPU  0 instructions:  476000000 cycles:  404141834 heartbeat IPC: 1.23391 cumulative IPC: 1.07295 (Simulation time: 0 hr 19 min 45 sec) 
Heartbeat CPU  0 instructions:  477000003 cycles:  405022620 heartbeat IPC: 1.13535 cumulative IPC: 1.07310 (Simulation time: 0 hr 19 min 48 sec) 
Heartbeat CPU  0 instructions:  478000001 cycles:  405926293 heartbeat IPC: 1.10659 cumulative IPC: 1.07319 (Simulation time: 0 hr 19 min 50 sec) 
Heartbeat CPU  0 instructions:  479000000 cycles:  406803034 heartbeat IPC: 1.14059 cumulative IPC: 1.07336 (Simulation time: 0 hr 19 min 53 sec) 
Heartbeat CPU  0 instructions:  480000000 cycles:  407688560 heartbeat IPC: 1.12927 cumulative IPC: 1.07350 (Simulation time: 0 hr 19 min 55 sec) 
Heartbeat CPU  0 instructions:  481000001 cycles:  408568931 heartbeat IPC: 1.13589 cumulative IPC: 1.07365 (Simulation time: 0 hr 19 min 58 sec) 
Heartbeat CPU  0 instructions:  482000003 cycles:  409445889 heartbeat IPC: 1.14031 cumulative IPC: 1.07381 (Simulation time: 0 hr 20 min 1 sec) 
Heartbeat CPU  0 instructions:  483000000 cycles:  410320950 heartbeat IPC: 1.14277 cumulative IPC: 1.07398 (Simulation time: 0 hr 20 min 3 sec) 
Heartbeat CPU  0 instructions:  484000000 cycles:  411201258 heartbeat IPC: 1.13597 cumulative IPC: 1.07414 (Simulation time: 0 hr 20 min 6 sec) 
Heartbeat CPU  0 instructions:  485000001 cycles:  412082885 heartbeat IPC: 1.13427 cumulative IPC: 1.07428 (Simulation time: 0 hr 20 min 8 sec) 
Heartbeat CPU  0 instructions:  486000000 cycles:  412926942 heartbeat IPC: 1.18475 cumulative IPC: 1.07454 (Simulation time: 0 hr 20 min 11 sec) 
Heartbeat CPU  0 instructions:  487000002 cycles:  413734463 heartbeat IPC: 1.23836 cumulative IPC: 1.07491 (Simulation time: 0 hr 20 min 13 sec) 
Heartbeat CPU  0 instructions:  488000000 cycles:  414665134 heartbeat IPC: 1.07449 cumulative IPC: 1.07491 (Simulation time: 0 hr 20 min 16 sec) 
Heartbeat CPU  0 instructions:  489000000 cycles:  415545370 heartbeat IPC: 1.13606 cumulative IPC: 1.07506 (Simulation time: 0 hr 20 min 18 sec) 
Heartbeat CPU  0 instructions:  490000000 cycles:  416425636 heartbeat IPC: 1.13602 cumulative IPC: 1.07521 (Simulation time: 0 hr 20 min 21 sec) 
Heartbeat CPU  0 instructions:  491000001 cycles:  417304794 heartbeat IPC: 1.13745 cumulative IPC: 1.07536 (Simulation time: 0 hr 20 min 23 sec) 
Heartbeat CPU  0 instructions:  492000000 cycles:  418180686 heartbeat IPC: 1.14169 cumulative IPC: 1.07552 (Simulation time: 0 hr 20 min 26 sec) 
Heartbeat CPU  0 instructions:  493000000 cycles:  419059753 heartbeat IPC: 1.13757 cumulative IPC: 1.07567 (Simulation time: 0 hr 20 min 28 sec) 
Heartbeat CPU  0 instructions:  494000003 cycles:  419938567 heartbeat IPC: 1.13790 cumulative IPC: 1.07582 (Simulation time: 0 hr 20 min 31 sec) 
Heartbeat CPU  0 instructions:  495000001 cycles:  420819169 heartbeat IPC: 1.13558 cumulative IPC: 1.07596 (Simulation time: 0 hr 20 min 33 sec) 
Heartbeat CPU  0 instructions:  496000000 cycles:  421699104 heartbeat IPC: 1.13645 cumulative IPC: 1.07610 (Simulation time: 0 hr 20 min 36 sec) 
Heartbeat CPU  0 instructions:  497000003 cycles:  422498826 heartbeat IPC: 1.25044 cumulative IPC: 1.07648 (Simulation time: 0 hr 20 min 38 sec) 
Heartbeat CPU  0 instructions:  498000001 cycles:  423383486 heartbeat IPC: 1.13038 cumulative IPC: 1.07661 (Simulation time: 0 hr 20 min 41 sec) 
Heartbeat CPU  0 instructions:  499000001 cycles:  424267053 heartbeat IPC: 1.13178 cumulative IPC: 1.07674 (Simulation time: 0 hr 20 min 43 sec) 
Heartbeat CPU  0 instructions:  500000000 cycles:  425141847 heartbeat IPC: 1.14313 cumulative IPC: 1.07690 (Simulation time: 0 hr 20 min 46 sec) 
Heartbeat CPU  0 instructions:  501000003 cycles:  426019820 heartbeat IPC: 1.13899 cumulative IPC: 1.07705 (Simulation time: 0 hr 20 min 48 sec) 
Heartbeat CPU  0 instructions:  502000003 cycles:  426896800 heartbeat IPC: 1.14028 cumulative IPC: 1.07719 (Simulation time: 0 hr 20 min 51 sec) 
Heartbeat CPU  0 instructions:  503000002 cycles:  427775576 heartbeat IPC: 1.13795 cumulative IPC: 1.07734 (Simulation time: 0 hr 20 min 54 sec) 
Heartbeat CPU  0 instructions:  504000000 cycles:  428650121 heartbeat IPC: 1.14345 cumulative IPC: 1.07749 (Simulation time: 0 hr 20 min 56 sec) 
Heartbeat CPU  0 instructions:  505000000 cycles:  429530959 heartbeat IPC: 1.13528 cumulative IPC: 1.07763 (Simulation time: 0 hr 20 min 59 sec) 
Heartbeat CPU  0 instructions:  506000002 cycles:  430411025 heartbeat IPC: 1.13628 cumulative IPC: 1.07776 (Simulation time: 0 hr 21 min 1 sec) 
Heartbeat CPU  0 instructions:  507000001 cycles:  431245640 heartbeat IPC: 1.19816 cumulative IPC: 1.07803 (Simulation time: 0 hr 21 min 4 sec) 
Heartbeat CPU  0 instructions:  508000000 cycles:  432055367 heartbeat IPC: 1.23498 cumulative IPC: 1.07837 (Simulation time: 0 hr 21 min 6 sec) 
Heartbeat CPU  0 instructions:  509000002 cycles:  432988525 heartbeat IPC: 1.07163 cumulative IPC: 1.07835 (Simulation time: 0 hr 21 min 8 sec) 
Heartbeat CPU  0 instructions:  510000002 cycles:  433865652 heartbeat IPC: 1.14009 cumulative IPC: 1.07849 (Simulation time: 0 hr 21 min 11 sec) 
Heartbeat CPU  0 instructions:  511000001 cycles:  434746826 heartbeat IPC: 1.13485 cumulative IPC: 1.07862 (Simulation time: 0 hr 21 min 14 sec) 
Heartbeat CPU  0 instructions:  512000000 cycles:  435623934 heartbeat IPC: 1.14011 cumulative IPC: 1.07876 (Simulation time: 0 hr 21 min 16 sec) 
Heartbeat CPU  0 instructions:  513000002 cycles:  436500967 heartbeat IPC: 1.14021 cumulative IPC: 1.07890 (Simulation time: 0 hr 21 min 19 sec) 
Heartbeat CPU  0 instructions:  514000000 cycles:  437381542 heartbeat IPC: 1.13562 cumulative IPC: 1.07903 (Simulation time: 0 hr 21 min 21 sec) 
Heartbeat CPU  0 instructions:  515000000 cycles:  438261289 heartbeat IPC: 1.13669 cumulative IPC: 1.07917 (Simulation time: 0 hr 21 min 24 sec) 
Heartbeat CPU  0 instructions:  516000000 cycles:  439139841 heartbeat IPC: 1.13824 cumulative IPC: 1.07930 (Simulation time: 0 hr 21 min 26 sec) 
Heartbeat CPU  0 instructions:  517000002 cycles:  440009014 heartbeat IPC: 1.15052 cumulative IPC: 1.07946 (Simulation time: 0 hr 21 min 29 sec) 
Heartbeat CPU  0 instructions:  518000000 cycles:  440809702 heartbeat IPC: 1.24892 cumulative IPC: 1.07981 (Simulation time: 0 hr 21 min 31 sec) 
Heartbeat CPU  0 instructions:  519000003 cycles:  441712069 heartbeat IPC: 1.10820 cumulative IPC: 1.07988 (Simulation time: 0 hr 21 min 34 sec) 
Heartbeat CPU  0 instructions:  520000000 cycles:  442601885 heartbeat IPC: 1.12382 cumulative IPC: 1.07998 (Simulation time: 0 hr 21 min 36 sec) 
Heartbeat CPU  0 instructions:  521000000 cycles:  443481268 heartbeat IPC: 1.13716 cumulative IPC: 1.08011 (Simulation time: 0 hr 21 min 39 sec) 
Heartbeat CPU  0 instructions:  522000003 cycles:  444361069 heartbeat IPC: 1.13662 cumulative IPC: 1.08023 (Simulation time: 0 hr 21 min 41 sec) 
Heartbeat CPU  0 instructions:  523000001 cycles:  445239739 heartbeat IPC: 1.13808 cumulative IPC: 1.08036 (Simulation time: 0 hr 21 min 44 sec) 
Heartbeat CPU  0 instructions:  524000000 cycles:  446116463 heartbeat IPC: 1.14061 cumulative IPC: 1.08050 (Simulation time: 0 hr 21 min 46 sec) 
Heartbeat CPU  0 instructions:  525000002 cycles:  446994124 heartbeat IPC: 1.13939 cumulative IPC: 1.08063 (Simulation time: 0 hr 21 min 49 sec) 
Heartbeat CPU  0 instructions:  526000002 cycles:  447875494 heartbeat IPC: 1.13460 cumulative IPC: 1.08075 (Simulation time: 0 hr 21 min 51 sec) 
Heartbeat CPU  0 instructions:  527000000 cycles:  448753648 heartbeat IPC: 1.13875 cumulative IPC: 1.08088 (Simulation time: 0 hr 21 min 54 sec) 
Heartbeat CPU  0 instructions:  528000000 cycles:  449581525 heartbeat IPC: 1.20791 cumulative IPC: 1.08114 (Simulation time: 0 hr 21 min 56 sec) 
Heartbeat CPU  0 instructions:  529000003 cycles:  450390490 heartbeat IPC: 1.23615 cumulative IPC: 1.08146 (Simulation time: 0 hr 21 min 59 sec) 
Heartbeat CPU  0 instructions:  530000002 cycles:  451340770 heartbeat IPC: 1.05232 cumulative IPC: 1.08139 (Simulation time: 0 hr 22 min 1 sec) 
Heartbeat CPU  0 instructions:  531000002 cycles:  452220398 heartbeat IPC: 1.13684 cumulative IPC: 1.08151 (Simulation time: 0 hr 22 min 4 sec) 
Heartbeat CPU  0 instructions:  532000000 cycles:  453097744 heartbeat IPC: 1.13980 cumulative IPC: 1.08164 (Simulation time: 0 hr 22 min 6 sec) 
Heartbeat CPU  0 instructions:  533000001 cycles:  453976130 heartbeat IPC: 1.13845 cumulative IPC: 1.08177 (Simulation time: 0 hr 22 min 9 sec) 
Heartbeat CPU  0 instructions:  534000003 cycles:  454854284 heartbeat IPC: 1.13875 cumulative IPC: 1.08189 (Simulation time: 0 hr 22 min 11 sec) 
Heartbeat CPU  0 instructions:  535000000 cycles:  455732820 heartbeat IPC: 1.13825 cumulative IPC: 1.08201 (Simulation time: 0 hr 22 min 14 sec) 
Heartbeat CPU  0 instructions:  536000000 cycles:  456621774 heartbeat IPC: 1.12492 cumulative IPC: 1.08211 (Simulation time: 0 hr 22 min 17 sec) 
Heartbeat CPU  0 instructions:  537000002 cycles:  457506420 heartbeat IPC: 1.13040 cumulative IPC: 1.08221 (Simulation time: 0 hr 22 min 19 sec) 
Heartbeat CPU  0 instructions:  538000003 cycles:  458370898 heartbeat IPC: 1.15677 cumulative IPC: 1.08237 (Simulation time: 0 hr 22 min 22 sec) 
Heartbeat CPU  0 instructions:  539000001 cycles:  459172800 heartbeat IPC: 1.24703 cumulative IPC: 1.08270 (Simulation time: 0 hr 22 min 24 sec) 
Heartbeat CPU  0 instructions:  540000000 cycles:  460712615 heartbeat IPC: 0.64943 cumulative IPC: 1.08106 (Simulation time: 0 hr 22 min 27 sec) 
Heartbeat CPU  0 instructions:  541000002 cycles:  461872648 heartbeat IPC: 0.86205 cumulative IPC: 1.08044 (Simulation time: 0 hr 22 min 29 sec) 
Heartbeat CPU  0 instructions:  542000003 cycles:  462876905 heartbeat IPC: 0.99576 cumulative IPC: 1.08023 (Simulation time: 0 hr 22 min 32 sec) 
Heartbeat CPU  0 instructions:  543000002 cycles:  463861070 heartbeat IPC: 1.01609 cumulative IPC: 1.08008 (Simulation time: 0 hr 22 min 35 sec) 
Heartbeat CPU  0 instructions:  544000000 cycles:  464859426 heartbeat IPC: 1.00164 cumulative IPC: 1.07989 (Simulation time: 0 hr 22 min 37 sec) 
Heartbeat CPU  0 instructions:  545000000 cycles:  465851381 heartbeat IPC: 1.00811 cumulative IPC: 1.07971 (Simulation time: 0 hr 22 min 40 sec) 
Heartbeat CPU  0 instructions:  546000001 cycles:  466846032 heartbeat IPC: 1.00538 cumulative IPC: 1.07953 (Simulation time: 0 hr 22 min 43 sec) 
Heartbeat CPU  0 instructions:  547000002 cycles:  467829611 heartbeat IPC: 1.01670 cumulative IPC: 1.07938 (Simulation time: 0 hr 22 min 45 sec) 
Heartbeat CPU  0 instructions:  548000000 cycles:  468823801 heartbeat IPC: 1.00584 cumulative IPC: 1.07921 (Simulation time: 0 hr 22 min 48 sec) 
Heartbeat CPU  0 instructions:  549000003 cycles:  469814026 heartbeat IPC: 1.00987 cumulative IPC: 1.07904 (Simulation time: 0 hr 22 min 50 sec) 
Heartbeat CPU  0 instructions:  550000002 cycles:  470800957 heartbeat IPC: 1.01324 cumulative IPC: 1.07889 (Simulation time: 0 hr 22 min 53 sec) 
Heartbeat CPU  0 instructions:  551000002 cycles:  471850575 heartbeat IPC: 0.95273 cumulative IPC: 1.07857 (Simulation time: 0 hr 22 min 56 sec) 
Heartbeat CPU  0 instructions:  552000000 cycles:  472844520 heartbeat IPC: 1.00609 cumulative IPC: 1.07840 (Simulation time: 0 hr 22 min 58 sec) 
Heartbeat CPU  0 instructions:  553000000 cycles:  473831611 heartbeat IPC: 1.01308 cumulative IPC: 1.07825 (Simulation time: 0 hr 23 min 1 sec) 
Heartbeat CPU  0 instructions:  554000001 cycles:  474819993 heartbeat IPC: 1.01176 cumulative IPC: 1.07809 (Simulation time: 0 hr 23 min 4 sec) 
Heartbeat CPU  0 instructions:  555000001 cycles:  475805148 heartbeat IPC: 1.01507 cumulative IPC: 1.07794 (Simulation time: 0 hr 23 min 6 sec) 
Heartbeat CPU  0 instructions:  556000000 cycles:  476786872 heartbeat IPC: 1.01862 cumulative IPC: 1.07781 (Simulation time: 0 hr 23 min 9 sec) 
Heartbeat CPU  0 instructions:  557000001 cycles:  477772705 heartbeat IPC: 1.01437 cumulative IPC: 1.07766 (Simulation time: 0 hr 23 min 11 sec) 
Heartbeat CPU  0 instructions:  558000001 cycles:  478765344 heartbeat IPC: 1.00742 cumulative IPC: 1.07749 (Simulation time: 0 hr 23 min 14 sec) 
Heartbeat CPU  0 instructions:  559000000 cycles:  479753904 heartbeat IPC: 1.01157 cumulative IPC: 1.07734 (Simulation time: 0 hr 23 min 17 sec) 
Heartbeat CPU  0 instructions:  560000000 cycles:  480746820 heartbeat IPC: 1.00713 cumulative IPC: 1.07718 (Simulation time: 0 hr 23 min 19 sec) 
Heartbeat CPU  0 instructions:  561000000 cycles:  481757682 heartbeat IPC: 0.98925 cumulative IPC: 1.07697 (Simulation time: 0 hr 23 min 22 sec) 
Heartbeat CPU  0 instructions:  562000002 cycles:  482766727 heartbeat IPC: 0.99104 cumulative IPC: 1.07677 (Simulation time: 0 hr 23 min 25 sec) 
Heartbeat CPU  0 instructions:  563000003 cycles:  483787113 heartbeat IPC: 0.98002 cumulative IPC: 1.07654 (Simulation time: 0 hr 23 min 27 sec) 
Heartbeat CPU  0 instructions:  564000000 cycles:  484854927 heartbeat IPC: 0.93649 cumulative IPC: 1.07619 (Simulation time: 0 hr 23 min 30 sec) 
Heartbeat CPU  0 instructions:  565000000 cycles:  485844210 heartbeat IPC: 1.01083 cumulative IPC: 1.07604 (Simulation time: 0 hr 23 min 33 sec) 
Heartbeat CPU  0 instructions:  566000001 cycles:  486829367 heartbeat IPC: 1.01507 cumulative IPC: 1.07590 (Simulation time: 0 hr 23 min 35 sec) 
Heartbeat CPU  0 instructions:  567000003 cycles:  487828610 heartbeat IPC: 1.00076 cumulative IPC: 1.07573 (Simulation time: 0 hr 23 min 38 sec) 
Heartbeat CPU  0 instructions:  568000000 cycles:  488814145 heartbeat IPC: 1.01467 cumulative IPC: 1.07559 (Simulation time: 0 hr 23 min 40 sec) 
Heartbeat CPU  0 instructions:  569000000 cycles:  489795958 heartbeat IPC: 1.01852 cumulative IPC: 1.07546 (Simulation time: 0 hr 23 min 43 sec) 
Heartbeat CPU  0 instructions:  570000003 cycles:  490777503 heartbeat IPC: 1.01881 cumulative IPC: 1.07534 (Simulation time: 0 hr 23 min 46 sec) 
Heartbeat CPU  0 instructions:  571000000 cycles:  491765913 heartbeat IPC: 1.01172 cumulative IPC: 1.07519 (Simulation time: 0 hr 23 min 48 sec) 
Heartbeat CPU  0 instructions:  572000000 cycles:  492798274 heartbeat IPC: 0.96865 cumulative IPC: 1.07494 (Simulation time: 0 hr 23 min 51 sec) 
Heartbeat CPU  0 instructions:  573000002 cycles:  493785521 heartbeat IPC: 1.01292 cumulative IPC: 1.07480 (Simulation time: 0 hr 23 min 54 sec) 
Heartbeat CPU  0 instructions:  574000000 cycles:  494776092 heartbeat IPC: 1.00952 cumulative IPC: 1.07466 (Simulation time: 0 hr 23 min 56 sec) 
Heartbeat CPU  0 instructions:  575000003 cycles:  495768961 heartbeat IPC: 1.00719 cumulative IPC: 1.07450 (Simulation time: 0 hr 23 min 59 sec) 
Heartbeat CPU  0 instructions:  576000000 cycles:  496763742 heartbeat IPC: 1.00524 cumulative IPC: 1.07435 (Simulation time: 0 hr 24 min 2 sec) 
Heartbeat CPU  0 instructions:  577000002 cycles:  497758972 heartbeat IPC: 1.00479 cumulative IPC: 1.07419 (Simulation time: 0 hr 24 min 4 sec) 
Heartbeat CPU  0 instructions:  578000002 cycles:  498756547 heartbeat IPC: 1.00243 cumulative IPC: 1.07403 (Simulation time: 0 hr 24 min 7 sec) 
Heartbeat CPU  0 instructions:  579000001 cycles:  499749221 heartbeat IPC: 1.00738 cumulative IPC: 1.07388 (Simulation time: 0 hr 24 min 10 sec) 
Heartbeat CPU  0 instructions:  580000000 cycles:  500733100 heartbeat IPC: 1.01638 cumulative IPC: 1.07376 (Simulation time: 0 hr 24 min 12 sec) 
Heartbeat CPU  0 instructions:  581000000 cycles:  501714166 heartbeat IPC: 1.01930 cumulative IPC: 1.07364 (Simulation time: 0 hr 24 min 15 sec) 
Heartbeat CPU  0 instructions:  582000002 cycles:  502733971 heartbeat IPC: 0.98058 cumulative IPC: 1.07343 (Simulation time: 0 hr 24 min 17 sec) 
Heartbeat CPU  0 instructions:  583000000 cycles:  503724884 heartbeat IPC: 1.00917 cumulative IPC: 1.07329 (Simulation time: 0 hr 24 min 20 sec) 
Heartbeat CPU  0 instructions:  584000000 cycles:  504706709 heartbeat IPC: 1.01851 cumulative IPC: 1.07317 (Simulation time: 0 hr 24 min 23 sec) 
Heartbeat CPU  0 instructions:  585000001 cycles:  505687662 heartbeat IPC: 1.01942 cumulative IPC: 1.07305 (Simulation time: 0 hr 24 min 25 sec) 
Heartbeat CPU  0 instructions:  586000002 cycles:  506672342 heartbeat IPC: 1.01556 cumulative IPC: 1.07292 (Simulation time: 0 hr 24 min 28 sec) 
Heartbeat CPU  0 instructions:  587000002 cycles:  507669686 heartbeat IPC: 1.00266 cumulative IPC: 1.07277 (Simulation time: 0 hr 24 min 30 sec) 
Heartbeat CPU  0 instructions:  588000000 cycles:  508657572 heartbeat IPC: 1.01226 cumulative IPC: 1.07264 (Simulation time: 0 hr 24 min 33 sec) 
Heartbeat CPU  0 instructions:  589000002 cycles:  509640670 heartbeat IPC: 1.01719 cumulative IPC: 1.07252 (Simulation time: 0 hr 24 min 36 sec) 
Heartbeat CPU  0 instructions:  590000002 cycles:  510621671 heartbeat IPC: 1.01937 cumulative IPC: 1.07241 (Simulation time: 0 hr 24 min 38 sec) 
Heartbeat CPU  0 instructions:  591000001 cycles:  511607998 heartbeat IPC: 1.01386 cumulative IPC: 1.07228 (Simulation time: 0 hr 24 min 41 sec) 
Heartbeat CPU  0 instructions:  592000000 cycles:  512805519 heartbeat IPC: 0.83506 cumulative IPC: 1.07166 (Simulation time: 0 hr 24 min 43 sec) 
Heartbeat CPU  0 instructions:  593000003 cycles:  514239005 heartbeat IPC: 0.69760 cumulative IPC: 1.07050 (Simulation time: 0 hr 24 min 46 sec) 
Heartbeat CPU  0 instructions:  594000003 cycles:  515148894 heartbeat IPC: 1.09904 cumulative IPC: 1.07055 (Simulation time: 0 hr 24 min 49 sec) 
Heartbeat CPU  0 instructions:  595000000 cycles:  516051630 heartbeat IPC: 1.10774 cumulative IPC: 1.07063 (Simulation time: 0 hr 24 min 51 sec) 
Heartbeat CPU  0 instructions:  596000000 cycles:  516945521 heartbeat IPC: 1.11870 cumulative IPC: 1.07072 (Simulation time: 0 hr 24 min 54 sec) 
Heartbeat CPU  0 instructions:  597000003 cycles:  517851878 heartbeat IPC: 1.10332 cumulative IPC: 1.07078 (Simulation time: 0 hr 24 min 56 sec) 
Heartbeat CPU  0 instructions:  598000003 cycles:  518750730 heartbeat IPC: 1.11253 cumulative IPC: 1.07086 (Simulation time: 0 hr 24 min 59 sec) 
Heartbeat CPU  0 instructions:  599000003 cycles:  519658447 heartbeat IPC: 1.10166 cumulative IPC: 1.07092 (Simulation time: 0 hr 25 min 1 sec) 
Heartbeat CPU  0 instructions:  600000000 cycles:  521346610 heartbeat IPC: 0.59236 cumulative IPC: 1.06919 (Simulation time: 0 hr 25 min 4 sec) 
Finished CPU 0 instructions: 500000003 cycles: 467641742 cumulative IPC: 1.06919 (Simulation time: 0 hr 25 min 4 sec) 

ChampSim completed all CPUs

[ROI Statistics]
Core_0_instructions 500000003
Core_0_cycles 467641742
Core_0_IPC 1.06919

Core_0_branch_prediction_accuracy 99.13980
Core_0_branch_MPKI 0.20639
Core_0_average_ROB_occupancy_at_mispredict 243.19647

Core_0_L1D_total_access 147490852
Core_0_L1D_total_hit 142168857
Core_0_L1D_total_miss 5321995
Core_0_L1D_loads 134752871
Core_0_L1D_load_hit 130733147
Core_0_L1D_load_miss 4019724
Core_0_L1D_RFOs 12737981
Core_0_L1D_RFO_hit 11435710
Core_0_L1D_RFO_miss 1302271
Core_0_L1D_prefetches 0
Core_0_L1D_prefetch_hit 0
Core_0_L1D_prefetch_miss 0
Core_0_L1D_writebacks 0
Core_0_L1D_writeback_hit 0
Core_0_L1D_writeback_miss 0
Core_0_L1D_prefetch_requested 0
Core_0_L1D_prefetch_dropped 0
Core_0_L1D_prefetch_issued 0
Core_0_L1D_prefetch_filled 0
Core_0_L1D_prefetch_useful 0
Core_0_L1D_prefetch_useless 0
Core_0_L1D_prefetch_late 0
Core_0_L1D_average_miss_latency 51.25853

Core_0_L1D_rq_access 197259606
Core_0_L1D_rq_forward 0
Core_0_L1D_rq_merged 61587308
Core_0_L1D_rq_to_cache 135672298
Core_0_L1D_rq_full 0

Core_0_L1D_wq_access 16646357
Core_0_L1D_wq_forward 0
Core_0_L1D_wq_merged 0
Core_0_L1D_wq_to_cache 16646357
Core_0_L1D_wq_full 247146

Core_0_L1D_pq_access 0
Core_0_L1D_pq_forward 0
Core_0_L1D_pq_merged 0
Core_0_L1D_pq_to_cache 0
Core_0_L1D_pq_full 0

Core_0_L1D_acc_epochs 504985
Core_0_L1D_acc_level_0 504985
Core_0_L1D_acc_level_1 0
Core_0_L1D_acc_level_2 0
Core_0_L1D_acc_level_3 0
Core_0_L1D_acc_level_4 0
Core_0_L1D_acc_level_5 0
Core_0_L1D_acc_level_6 0
Core_0_L1D_acc_level_7 0
Core_0_L1D_acc_level_8 0
Core_0_L1D_acc_level_9 0

Core_0_L1I_total_access 121111954
Core_0_L1I_total_hit 121111656
Core_0_L1I_total_miss 298
Core_0_L1I_loads 121111954
Core_0_L1I_load_hit 121111656
Core_0_L1I_load_miss 298
Core_0_L1I_RFOs 0
Core_0_L1I_RFO_hit 0
Core_0_L1I_RFO_miss 0
Core_0_L1I_prefetches 0
Core_0_L1I_prefetch_hit 0
Core_0_L1I_prefetch_miss 0
Core_0_L1I_writebacks 0
Core_0_L1I_writeback_hit 0
Core_0_L1I_writeback_miss 0
Core_0_L1I_prefetch_requested 0
Core_0_L1I_prefetch_dropped 0
Core_0_L1I_prefetch_issued 0
Core_0_L1I_prefetch_filled 0
Core_0_L1I_prefetch_useful 0
Core_0_L1I_prefetch_useless 0
Core_0_L1I_prefetch_late 0
Core_0_L1I_average_miss_latency 253.15436

Core_0_L1I_rq_access 500000208
Core_0_L1I_rq_forward 0
Core_0_L1I_rq_merged 378887234
Core_0_L1I_rq_to_cache 121112974
Core_0_L1I_rq_full 0

Core_0_L1I_wq_access 0
Core_0_L1I_wq_forward 0
Core_0_L1I_wq_merged 0
Core_0_L1I_wq_to_cache 0
Core_0_L1I_wq_full 0

Core_0_L1I_pq_access 0
Core_0_L1I_pq_forward 0
Core_0_L1I_pq_merged 0
Core_0_L1I_pq_to_cache 0
Core_0_L1I_pq_full 0

Core_0_L1I_acc_epochs 504985
Core_0_L1I_acc_level_0 504985
Core_0_L1I_acc_level_1 0
Core_0_L1I_acc_level_2 0
Core_0_L1I_acc_level_3 0
Core_0_L1I_acc_level_4 0
Core_0_L1I_acc_level_5 0
Core_0_L1I_acc_level_6 0
Core_0_L1I_acc_level_7 0
Core_0_L1I_acc_level_8 0
Core_0_L1I_acc_level_9 0

Core_0_L2C_total_access 9814389
Core_0_L2C_total_hit 6015197
Core_0_L2C_total_miss 3799192
Core_0_L2C_loads 4019973
Core_0_L2C_load_hit 3811943
Core_0_L2C_load_miss 208030
Core_0_L2C_RFOs 1302120
Core_0_L2C_RFO_hit 501633
Core_0_L2C_RFO_miss 800487
Core_0_L2C_prefetches 2821346
Core_0_L2C_prefetch_hit 31104
Core_0_L2C_prefetch_miss 2790242
Core_0_L2C_writebacks 1670950
Core_0_L2C_writeback_hit 1670517
Core_0_L2C_writeback_miss 433
Core_0_L2C_prefetch_requested 3291503
Core_0_L2C_prefetch_dropped 0
Core_0_L2C_prefetch_issued 3291503
Core_0_L2C_prefetch_filled 3232724
Core_0_L2C_prefetch_useful 3206916
Core_0_L2C_prefetch_useless 25782
Core_0_L2C_prefetch_late 655
Core_0_L2C_average_miss_latency 241.62487

Core_0_L2C_rq_access 5322295
Core_0_L2C_rq_forward 0
Core_0_L2C_rq_merged 0
Core_0_L2C_rq_to_cache 5322095
Core_0_L2C_rq_full 0

Core_0_L2C_wq_access 1670950
Core_0_L2C_wq_forward 205
Core_0_L2C_wq_merged 0
Core_0_L2C_wq_to_cache 1670950
Core_0_L2C_wq_full 0

Core_0_L2C_pq_access 3291503
Core_0_L2C_pq_forward 0
Core_0_L2C_pq_merged 0
Core_0_L2C_pq_to_cache 3291498
Core_0_L2C_pq_full 0

Core_0_L2C_acc_epochs 504985
Core_0_L2C_acc_level_0 362281
Core_0_L2C_acc_level_1 48409
Core_0_L2C_acc_level_2 23375
Core_0_L2C_acc_level_3 13536
Core_0_L2C_acc_level_4 5217
Core_0_L2C_acc_level_5 9800
Core_0_L2C_acc_level_6 3609
Core_0_L2C_acc_level_7 4234
Core_0_L2C_acc_level_8 1761
Core_0_L2C_acc_level_9 32763

Core_0_LLC_total_access 4793185
Core_0_LLC_total_hit 887286
Core_0_LLC_total_miss 3905899
Core_0_LLC_loads 207375
Core_0_LLC_load_hit 39565
Core_0_LLC_load_miss 167810
Core_0_LLC_RFOs 800487
Core_0_LLC_RFO_hit 90340
Core_0_LLC_RFO_miss 710147
Core_0_LLC_prefetches 2817414
Core_0_LLC_prefetch_hit 439419
Core_0_LLC_prefetch_miss 2377995
Core_0_LLC_writebacks 967909
Core_0_LLC_writeback_hit 317962
Core_0_LLC_writeback_miss 649947
Core_0_LLC_prefetch_requested 0
Core_0_LLC_prefetch_dropped 0
Core_0_LLC_prefetch_issued 0
Core_0_LLC_prefetch_filled 2820402
Core_0_LLC_prefetch_useful 20073
Core_0_LLC_prefetch_useless 2791461
Core_0_LLC_prefetch_late 0
Core_0_LLC_average_miss_latency 205.29464

Core_0_LLC_rq_access 1007864
Core_0_LLC_rq_forward 0
Core_0_LLC_rq_merged 0
Core_0_LLC_rq_to_cache 1007863
Core_0_LLC_rq_full 0

Core_0_LLC_wq_access 967909
Core_0_LLC_wq_forward 1
Core_0_LLC_wq_merged 0
Core_0_LLC_wq_to_cache 967909
Core_0_LLC_wq_full 0

Core_0_LLC_pq_access 3259908
Core_0_LLC_pq_forward 0
Core_0_LLC_pq_merged 0
Core_0_LLC_pq_to_cache 3259908
Core_0_LLC_pq_full 0

Core_0_LLC_acc_epochs 509128
Core_0_LLC_acc_level_0 508173
Core_0_LLC_acc_level_1 321
Core_0_LLC_acc_level_2 140
Core_0_LLC_acc_level_3 104
Core_0_LLC_acc_level_4 6
Core_0_LLC_acc_level_5 105
Core_0_LLC_acc_level_6 7
Core_0_LLC_acc_level_7 89
Core_0_LLC_acc_level_8 2
Core_0_LLC_acc_level_9 181

Core_0_major_page_fault 0
Core_0_minor_page_fault 14596

[Bingo] PHT Access: 112567
[Bingo] PHT Hit PC+Addr: 1600
[Bingo] PHT Hit PC+Offs: 107139
[Bingo] PHT Miss: 3828
[Bingo] Prefetch PC+Addr: 0
[Bingo] Prefetch PC+Offs: 0
[Bingo] Useful PC+Addr: 0
[Bingo] Useful PC+Offs: 0
[Bingo] Useless PC+Addr: 0
[Bingo] Useless PC+Offs: 0
[Bingo] L1 Prefetch per Region: 0.00000
[Bingo] L2 Prefetch per Region: 31.26264
[Bingo] L3 Prefetch per Region: 0.30787
[Bingo] No Prefetch per Region: 0.42949
[Bingo] Number of Voters Mean: 15.36688
[Bingo] Number of Voters SD: 2.37004

Channel_0_RQ_row_buffer_hit 2003647
Channel_0_RQ_row_buffer_miss 1252305
Channel_0_WQ_row_buffer_hit 356044
Channel_0_WQ_row_buffer_miss 500740
Channel_0_WQ_full 12102
Channel_0_dbus_congested 939905

avg_congested_cycle 4

DRAM_bw_pochs 2036511
DRAM_bw_level_0 1865940
DRAM_bw_level_1 86851
DRAM_bw_level_2 45144
DRAM_bw_level_3 38576
