*************************************************
   ChampSim Multicore Out-of-Order Simulator
   Last compiled: Dec 11 2024 17:59:53
*************************************************
parsing config file: /home/functionmain/桌面/Pythia/config/nopref.ini

trace_0 /home/functionmain/桌面/Pythia/traces/437.leslie3d-149B.champsimtrace.xz
adding L2C_PREFETCHER: NONE
Initialize SHIP state
warmup_instructions 100000000
simulation_instructions 500000000
champsim_seed 224
measure_ipc 0
measure_ipc_epoch 1000
measure_dram_bw 1
measure_dram_bw_epoch 256
measure_cache_acc 1
measure_cache_acc_epoch 1024
l1d_perfect 0
l2c_perfect 0
llc_perfect 0
l1d_semi_perfect 0
l2c_semi_perfect 0
llc_semi_perfect 0
semi_perfect_cache_page_buffer_size 64

num_cpus 1
cpu_freq 4000
dram_io_freq 2400
page_size 4096
block_size 64
max_read_per_cycle 8
max_fill_per_cycle 1
dram_channels 1
log2_dram_channels 0
dram_ranks 1
dram_banks 8
dram_rows 65536
dram_columns 128
dram_row_size 8
dram_size 4096
dram_pages 1048576

fetch_width 6
decode_width 6
exec_width 4
lq_width 2
sq_width 2
retire_width 4
scheduler_size 128
branch_mispredict_penalty 20
rob_size 256
lq_size 72
sq_size 56
num_instr_destinations_sparc 4
num_instr_destinations 2
num_instr_sources 4

itlb_set 16
itlb_way 8
itlb_rq_size 16
itlb_wq_size 16
itlb_pq_size 0
itlb_mshr_size 8
itlb_latency 1

dtlb_set 16
dtlb_way 4
dtlb_rq_size 16
dtlb_wq_size 16
dtlb_pq_size 0
dtlb_mshr_size 8
dtlb_latency 1

stlb_set 128
stlb_way 12
stlb_rq_size 32
stlb_wq_size 32
stlb_pq_size 0
stlb_mshr_size 16
stlb_latency 8

l1i_size 32
l1i_set 64
l1i_way 8
l1i_rq_size 64
l1i_wq_size 64
l1i_pq_size 8
l1i_mshr_size 8
l1i_latency 1

l1d_size 32
l1d_set 64
l1d_way 8
l1d_rq_size 64
l1d_wq_size 64
l1d_pq_size 8
l1d_mshr_size 16
l1d_latency 4

l2c_size 256
l2c_set 512
l2c_way 8
l2c_rq_size 32
l2c_wq_size 32
l2c_pq_size 32
l2c_mshr_size 32
l2c_latency 10

llc_size 2048
llc_set 2048
llc_way 16
llc_rq_size 32
llc_wq_size 32
llc_pq_size 32
llc_mshr_size 64
llc_latency 20

dram_channel_width 8
dram_wq_size 64
dram_rq_size 64
tRP 15
tRCD 15
tCAS 12.5
dram_dbus_turn_around_time 30
dram_write_high_wm 56
dram_write_low_wm 48
min_dram_writes_per_switch 16
dram_mtps 2400
dram_dbus_return_time 13


Heartbeat CPU  0 instructions:    1000002 cycles:     502455 heartbeat IPC: 1.99023 cumulative IPC: 1.99023 (Simulation time: 0 hr 0 min 2 sec) 
Heartbeat CPU  0 instructions:    2000001 cycles:     990567 heartbeat IPC: 2.04871 cumulative IPC: 2.01905 (Simulation time: 0 hr 0 min 4 sec) 
Heartbeat CPU  0 instructions:    3000003 cycles:    1492263 heartbeat IPC: 1.99324 cumulative IPC: 2.01037 (Simulation time: 0 hr 0 min 5 sec) 
Heartbeat CPU  0 instructions:    4000000 cycles:    1993703 heartbeat IPC: 1.99425 cumulative IPC: 2.00632 (Simulation time: 0 hr 0 min 7 sec) 
Heartbeat CPU  0 instructions:    5000000 cycles:    2495660 heartbeat IPC: 1.99220 cumulative IPC: 2.00348 (Simulation time: 0 hr 0 min 9 sec) 
Heartbeat CPU  0 instructions:    6000001 cycles:    2995131 heartbeat IPC: 2.00212 cumulative IPC: 2.00325 (Simulation time: 0 hr 0 min 11 sec) 
Heartbeat CPU  0 instructions:    7000000 cycles:    3485011 heartbeat IPC: 2.04131 cumulative IPC: 2.00860 (Simulation time: 0 hr 0 min 12 sec) 
Heartbeat CPU  0 instructions:    8000000 cycles:    3987569 heartbeat IPC: 1.98982 cumulative IPC: 2.00623 (Simulation time: 0 hr 0 min 14 sec) 
Heartbeat CPU  0 instructions:    9000002 cycles:    4489104 heartbeat IPC: 1.99388 cumulative IPC: 2.00485 (Simulation time: 0 hr 0 min 16 sec) 
Heartbeat CPU  0 instructions:   10000000 cycles:    4990827 heartbeat IPC: 1.99313 cumulative IPC: 2.00368 (Simulation time: 0 hr 0 min 18 sec) 
Heartbeat CPU  0 instructions:   11000002 cycles:    5481674 heartbeat IPC: 2.03730 cumulative IPC: 2.00669 (Simulation time: 0 hr 0 min 19 sec) 
Heartbeat CPU  0 instructions:   12000000 cycles:    5980267 heartbeat IPC: 2.00564 cumulative IPC: 2.00660 (Simulation time: 0 hr 0 min 21 sec) 
Heartbeat CPU  0 instructions:   13000002 cycles:    6482372 heartbeat IPC: 1.99162 cumulative IPC: 2.00544 (Simulation time: 0 hr 0 min 23 sec) 
Heartbeat CPU  0 instructions:   14000003 cycles:    6984236 heartbeat IPC: 1.99257 cumulative IPC: 2.00451 (Simulation time: 0 hr 0 min 24 sec) 
Heartbeat CPU  0 instructions:   15000002 cycles:    7486143 heartbeat IPC: 1.99240 cumulative IPC: 2.00370 (Simulation time: 0 hr 0 min 26 sec) 
Heartbeat CPU  0 instructions:   16000000 cycles:    7973657 heartbeat IPC: 2.05122 cumulative IPC: 2.00661 (Simulation time: 0 hr 0 min 28 sec) 
Heartbeat CPU  0 instructions:   17000001 cycles:    8476067 heartbeat IPC: 1.99041 cumulative IPC: 2.00565 (Simulation time: 0 hr 0 min 30 sec) 
Heartbeat CPU  0 instructions:   18000003 cycles:    8978839 heartbeat IPC: 1.98898 cumulative IPC: 2.00471 (Simulation time: 0 hr 0 min 31 sec) 
Heartbeat CPU  0 instructions:   19000003 cycles:    9480621 heartbeat IPC: 1.99290 cumulative IPC: 2.00409 (Simulation time: 0 hr 0 min 33 sec) 
Heartbeat CPU  0 instructions:   20000000 cycles:    9972704 heartbeat IPC: 2.03217 cumulative IPC: 2.00547 (Simulation time: 0 hr 0 min 35 sec) 
Heartbeat CPU  0 instructions:   21000003 cycles:   10469873 heartbeat IPC: 2.01139 cumulative IPC: 2.00576 (Simulation time: 0 hr 0 min 37 sec) 
Heartbeat CPU  0 instructions:   22000001 cycles:   10971983 heartbeat IPC: 1.99159 cumulative IPC: 2.00511 (Simulation time: 0 hr 0 min 38 sec) 
Heartbeat CPU  0 instructions:   23000002 cycles:   11474237 heartbeat IPC: 1.99103 cumulative IPC: 2.00449 (Simulation time: 0 hr 0 min 40 sec) 
Heartbeat CPU  0 instructions:   24000000 cycles:   11975899 heartbeat IPC: 1.99337 cumulative IPC: 2.00402 (Simulation time: 0 hr 0 min 42 sec) 
Heartbeat CPU  0 instructions:   25000002 cycles:   12463629 heartbeat IPC: 2.05032 cumulative IPC: 2.00584 (Simulation time: 0 hr 0 min 43 sec) 
Heartbeat CPU  0 instructions:   26000002 cycles:   12965143 heartbeat IPC: 1.99396 cumulative IPC: 2.00538 (Simulation time: 0 hr 0 min 45 sec) 
Heartbeat CPU  0 instructions:   27000001 cycles:   13467037 heartbeat IPC: 1.99245 cumulative IPC: 2.00490 (Simulation time: 0 hr 0 min 47 sec) 
Heartbeat CPU  0 instructions:   28000000 cycles:   13969106 heartbeat IPC: 1.99176 cumulative IPC: 2.00442 (Simulation time: 0 hr 0 min 49 sec) 
Heartbeat CPU  0 instructions:   29000003 cycles:   14463774 heartbeat IPC: 2.02156 cumulative IPC: 2.00501 (Simulation time: 0 hr 0 min 50 sec) 
Heartbeat CPU  0 instructions:   30000003 cycles:   14958376 heartbeat IPC: 2.02183 cumulative IPC: 2.00557 (Simulation time: 0 hr 0 min 52 sec) 
Heartbeat CPU  0 instructions:   31000001 cycles:   15460208 heartbeat IPC: 1.99269 cumulative IPC: 2.00515 (Simulation time: 0 hr 0 min 54 sec) 
Heartbeat CPU  0 instructions:   32000000 cycles:   15962066 heartbeat IPC: 1.99259 cumulative IPC: 2.00475 (Simulation time: 0 hr 0 min 56 sec) 
Heartbeat CPU  0 instructions:   33000000 cycles:   16463985 heartbeat IPC: 1.99235 cumulative IPC: 2.00437 (Simulation time: 0 hr 0 min 57 sec) 
Heartbeat CPU  0 instructions:   34000003 cycles:   16951695 heartbeat IPC: 2.05041 cumulative IPC: 2.00570 (Simulation time: 0 hr 0 min 59 sec) 
Heartbeat CPU  0 instructions:   35000003 cycles:   17453282 heartbeat IPC: 1.99367 cumulative IPC: 2.00535 (Simulation time: 0 hr 1 min 1 sec) 
Heartbeat CPU  0 instructions:   36000000 cycles:   17955146 heartbeat IPC: 1.99257 cumulative IPC: 2.00500 (Simulation time: 0 hr 1 min 2 sec) 
Heartbeat CPU  0 instructions:   37000001 cycles:   18457716 heartbeat IPC: 1.98977 cumulative IPC: 2.00458 (Simulation time: 0 hr 1 min 4 sec) 
Heartbeat CPU  0 instructions:   38000003 cycles:   18954829 heartbeat IPC: 2.01162 cumulative IPC: 2.00477 (Simulation time: 0 hr 1 min 6 sec) 
Heartbeat CPU  0 instructions:   39000001 cycles:   19447430 heartbeat IPC: 2.03004 cumulative IPC: 2.00541 (Simulation time: 0 hr 1 min 8 sec) 
Heartbeat CPU  0 instructions:   40000000 cycles:   19949413 heartbeat IPC: 1.99210 cumulative IPC: 2.00507 (Simulation time: 0 hr 1 min 9 sec) 
Heartbeat CPU  0 instructions:   41000002 cycles:   20451474 heartbeat IPC: 1.99179 cumulative IPC: 2.00475 (Simulation time: 0 hr 1 min 11 sec) 
Heartbeat CPU  0 instructions:   42000000 cycles:   20953651 heartbeat IPC: 1.99133 cumulative IPC: 2.00442 (Simulation time: 0 hr 1 min 13 sec) 
Heartbeat CPU  0 instructions:   43000000 cycles:   21441620 heartbeat IPC: 2.04931 cumulative IPC: 2.00545 (Simulation time: 0 hr 1 min 15 sec) 
Heartbeat CPU  0 instructions:   44000000 cycles:   21943430 heartbeat IPC: 1.99279 cumulative IPC: 2.00516 (Simulation time: 0 hr 1 min 16 sec) 
Heartbeat CPU  0 instructions:   45000002 cycles:   22445657 heartbeat IPC: 1.99114 cumulative IPC: 2.00484 (Simulation time: 0 hr 1 min 18 sec) 
Heartbeat CPU  0 instructions:   46000003 cycles:   22947292 heartbeat IPC: 1.99348 cumulative IPC: 2.00459 (Simulation time: 0 hr 1 min 20 sec) 
Heartbeat CPU  0 instructions:   47000000 cycles:   23446029 heartbeat IPC: 2.00506 cumulative IPC: 2.00460 (Simulation time: 0 hr 1 min 21 sec) 
Heartbeat CPU  0 instructions:   48000000 cycles:   23936749 heartbeat IPC: 2.03782 cumulative IPC: 2.00528 (Simulation time: 0 hr 1 min 23 sec) 
Heartbeat CPU  0 instructions:   49000002 cycles:   24439044 heartbeat IPC: 1.99087 cumulative IPC: 2.00499 (Simulation time: 0 hr 1 min 25 sec) 
Heartbeat CPU  0 instructions:   50000003 cycles:   24940955 heartbeat IPC: 1.99239 cumulative IPC: 2.00473 (Simulation time: 0 hr 1 min 27 sec) 
Heartbeat CPU  0 instructions:   51000001 cycles:   25442656 heartbeat IPC: 1.99322 cumulative IPC: 2.00451 (Simulation time: 0 hr 1 min 28 sec) 
Heartbeat CPU  0 instructions:   52000000 cycles:   25932741 heartbeat IPC: 2.04046 cumulative IPC: 2.00519 (Simulation time: 0 hr 1 min 30 sec) 
Heartbeat CPU  0 instructions:   53000003 cycles:   26432169 heartbeat IPC: 2.00230 cumulative IPC: 2.00513 (Simulation time: 0 hr 1 min 32 sec) 
Heartbeat CPU  0 instructions:   54000003 cycles:   26943194 heartbeat IPC: 1.95685 cumulative IPC: 2.00422 (Simulation time: 0 hr 1 min 34 sec) 
Heartbeat CPU  0 instructions:   55000001 cycles:   27462670 heartbeat IPC: 1.92501 cumulative IPC: 2.00272 (Simulation time: 0 hr 1 min 35 sec) 
Heartbeat CPU  0 instructions:   56000000 cycles:   27977310 heartbeat IPC: 1.94310 cumulative IPC: 2.00162 (Simulation time: 0 hr 1 min 37 sec) 
Heartbeat CPU  0 instructions:   57000000 cycles:   28491309 heartbeat IPC: 1.94553 cumulative IPC: 2.00061 (Simulation time: 0 hr 1 min 38 sec) 
Heartbeat CPU  0 instructions:   58000002 cycles:   29007103 heartbeat IPC: 1.93876 cumulative IPC: 1.99951 (Simulation time: 0 hr 1 min 40 sec) 
Heartbeat CPU  0 instructions:   59000003 cycles:   29519682 heartbeat IPC: 1.95092 cumulative IPC: 1.99867 (Simulation time: 0 hr 1 min 42 sec) 
Heartbeat CPU  0 instructions:   60000000 cycles:   30031429 heartbeat IPC: 1.95408 cumulative IPC: 1.99791 (Simulation time: 0 hr 1 min 43 sec) 
Heartbeat CPU  0 instructions:   61000001 cycles:   30545201 heartbeat IPC: 1.94639 cumulative IPC: 1.99704 (Simulation time: 0 hr 1 min 45 sec) 
Heartbeat CPU  0 instructions:   62000003 cycles:   31058890 heartbeat IPC: 1.94671 cumulative IPC: 1.99621 (Simulation time: 0 hr 1 min 46 sec) 
Heartbeat CPU  0 instructions:   63000001 cycles:   31571806 heartbeat IPC: 1.94963 cumulative IPC: 1.99545 (Simulation time: 0 hr 1 min 48 sec) 
Heartbeat CPU  0 instructions:   64000000 cycles:   32086215 heartbeat IPC: 1.94398 cumulative IPC: 1.99463 (Simulation time: 0 hr 1 min 50 sec) 
Heartbeat CPU  0 instructions:   65000000 cycles:   32600699 heartbeat IPC: 1.94370 cumulative IPC: 1.99382 (Simulation time: 0 hr 1 min 51 sec) 
Heartbeat CPU  0 instructions:   66000002 cycles:   33113838 heartbeat IPC: 1.94879 cumulative IPC: 1.99312 (Simulation time: 0 hr 1 min 53 sec) 
Heartbeat CPU  0 instructions:   67000002 cycles:   33628362 heartbeat IPC: 1.94354 cumulative IPC: 1.99237 (Simulation time: 0 hr 1 min 54 sec) 
Heartbeat CPU  0 instructions:   68000000 cycles:   34142881 heartbeat IPC: 1.94356 cumulative IPC: 1.99163 (Simulation time: 0 hr 1 min 56 sec) 
Heartbeat CPU  0 instructions:   69000001 cycles:   34655840 heartbeat IPC: 1.94948 cumulative IPC: 1.99101 (Simulation time: 0 hr 1 min 58 sec) 
Heartbeat CPU  0 instructions:   70000003 cycles:   35170158 heartbeat IPC: 1.94433 cumulative IPC: 1.99032 (Simulation time: 0 hr 1 min 59 sec) 
Heartbeat CPU  0 instructions:   71000002 cycles:   35684457 heartbeat IPC: 1.94439 cumulative IPC: 1.98966 (Simulation time: 0 hr 2 min 1 sec) 
Heartbeat CPU  0 instructions:   72000000 cycles:   36197322 heartbeat IPC: 1.94983 cumulative IPC: 1.98910 (Simulation time: 0 hr 2 min 2 sec) 
Heartbeat CPU  0 instructions:   73000003 cycles:   36711110 heartbeat IPC: 1.94633 cumulative IPC: 1.98850 (Simulation time: 0 hr 2 min 4 sec) 
Heartbeat CPU  0 instructions:   74000001 cycles:   37225165 heartbeat IPC: 1.94531 cumulative IPC: 1.98790 (Simulation time: 0 hr 2 min 6 sec) 
Heartbeat CPU  0 instructions:   75000001 cycles:   37738303 heartbeat IPC: 1.94879 cumulative IPC: 1.98737 (Simulation time: 0 hr 2 min 7 sec) 
Heartbeat CPU  0 instructions:   76000000 cycles:   38252261 heartbeat IPC: 1.94568 cumulative IPC: 1.98681 (Simulation time: 0 hr 2 min 9 sec) 
Heartbeat CPU  0 instructions:   77000001 cycles:   38766953 heartbeat IPC: 1.94291 cumulative IPC: 1.98623 (Simulation time: 0 hr 2 min 10 sec) 
Heartbeat CPU  0 instructions:   78000003 cycles:   39280007 heartbeat IPC: 1.94912 cumulative IPC: 1.98574 (Simulation time: 0 hr 2 min 12 sec) 
Heartbeat CPU  0 instructions:   79000000 cycles:   39793733 heartbeat IPC: 1.94656 cumulative IPC: 1.98524 (Simulation time: 0 hr 2 min 13 sec) 
Heartbeat CPU  0 instructions:   80000000 cycles:   40308307 heartbeat IPC: 1.94336 cumulative IPC: 1.98470 (Simulation time: 0 hr 2 min 15 sec) 
Heartbeat CPU  0 instructions:   81000000 cycles:   40822072 heartbeat IPC: 1.94642 cumulative IPC: 1.98422 (Simulation time: 0 hr 2 min 17 sec) 
Heartbeat CPU  0 instructions:   82000001 cycles:   41336449 heartbeat IPC: 1.94410 cumulative IPC: 1.98372 (Simulation time: 0 hr 2 min 18 sec) 
Heartbeat CPU  0 instructions:   83000001 cycles:   41852085 heartbeat IPC: 1.93935 cumulative IPC: 1.98317 (Simulation time: 0 hr 2 min 20 sec) 
Heartbeat CPU  0 instructions:   84000000 cycles:   42366111 heartbeat IPC: 1.94542 cumulative IPC: 1.98272 (Simulation time: 0 hr 2 min 21 sec) 
Heartbeat CPU  0 instructions:   85000001 cycles:   42880400 heartbeat IPC: 1.94443 cumulative IPC: 1.98226 (Simulation time: 0 hr 2 min 23 sec) 
Heartbeat CPU  0 instructions:   86000002 cycles:   43396108 heartbeat IPC: 1.93908 cumulative IPC: 1.98174 (Simulation time: 0 hr 2 min 25 sec) 
Heartbeat CPU  0 instructions:   87000003 cycles:   43909888 heartbeat IPC: 1.94636 cumulative IPC: 1.98133 (Simulation time: 0 hr 2 min 26 sec) 
Heartbeat CPU  0 instructions:   88000000 cycles:   44423098 heartbeat IPC: 1.94851 cumulative IPC: 1.98095 (Simulation time: 0 hr 2 min 28 sec) 
Heartbeat CPU  0 instructions:   89000002 cycles:   44937938 heartbeat IPC: 1.94235 cumulative IPC: 1.98051 (Simulation time: 0 hr 2 min 29 sec) 
Heartbeat CPU  0 instructions:   90000003 cycles:   45451066 heartbeat IPC: 1.94883 cumulative IPC: 1.98015 (Simulation time: 0 hr 2 min 31 sec) 
Heartbeat CPU  0 instructions:   91000002 cycles:   45963737 heartbeat IPC: 1.95057 cumulative IPC: 1.97982 (Simulation time: 0 hr 2 min 33 sec) 
Heartbeat CPU  0 instructions:   92000000 cycles:   46478442 heartbeat IPC: 1.94286 cumulative IPC: 1.97941 (Simulation time: 0 hr 2 min 34 sec) 
Heartbeat CPU  0 instructions:   93000001 cycles:   46991795 heartbeat IPC: 1.94798 cumulative IPC: 1.97907 (Simulation time: 0 hr 2 min 36 sec) 
Heartbeat CPU  0 instructions:   94000003 cycles:   47504872 heartbeat IPC: 1.94903 cumulative IPC: 1.97874 (Simulation time: 0 hr 2 min 37 sec) 
Heartbeat CPU  0 instructions:   95000003 cycles:   48020143 heartbeat IPC: 1.94073 cumulative IPC: 1.97834 (Simulation time: 0 hr 2 min 39 sec) 
Heartbeat CPU  0 instructions:   96000000 cycles:   48533927 heartbeat IPC: 1.94634 cumulative IPC: 1.97800 (Simulation time: 0 hr 2 min 41 sec) 
Heartbeat CPU  0 instructions:   97000002 cycles:   49047190 heartbeat IPC: 1.94832 cumulative IPC: 1.97769 (Simulation time: 0 hr 2 min 42 sec) 
Heartbeat CPU  0 instructions:   98000000 cycles:   49562272 heartbeat IPC: 1.94143 cumulative IPC: 1.97731 (Simulation time: 0 hr 2 min 44 sec) 
Heartbeat CPU  0 instructions:   99000000 cycles:   50076250 heartbeat IPC: 1.94561 cumulative IPC: 1.97699 (Simulation time: 0 hr 2 min 45 sec) 
Heartbeat CPU  0 instructions:  100000000 cycles:   50614496 heartbeat IPC: 1.85789 cumulative IPC: 1.97572 (Simulation time: 0 hr 2 min 47 sec) 

Warmup complete CPU  0 instructions:  100000001 cycles:   50614517 (Simulation time: 0 hr 2 min 47 sec) 

Heartbeat CPU  0 instructions:  101000003 cycles:   52758416 heartbeat IPC: 0.46644 cumulative IPC: 0.46644 (Simulation time: 0 hr 2 min 50 sec) 
Heartbeat CPU  0 instructions:  102000002 cycles:   56728898 heartbeat IPC: 0.25186 cumulative IPC: 0.32710 (Simulation time: 0 hr 2 min 54 sec) 
Heartbeat CPU  0 instructions:  103000002 cycles:   59280882 heartbeat IPC: 0.39185 cumulative IPC: 0.34617 (Simulation time: 0 hr 2 min 57 sec) 
Heartbeat CPU  0 instructions:  104000000 cycles:   60529519 heartbeat IPC: 0.80087 cumulative IPC: 0.40343 (Simulation time: 0 hr 2 min 59 sec) 
Heartbeat CPU  0 instructions:  105000002 cycles:   61811248 heartbeat IPC: 0.78020 cumulative IPC: 0.44656 (Simulation time: 0 hr 3 min 1 sec) 
Heartbeat CPU  0 instructions:  106000003 cycles:   63104570 heartbeat IPC: 0.77320 cumulative IPC: 0.48038 (Simulation time: 0 hr 3 min 4 sec) 
Heartbeat CPU  0 instructions:  107000000 cycles:   64379685 heartbeat IPC: 0.78424 cumulative IPC: 0.50853 (Simulation time: 0 hr 3 min 6 sec) 
Heartbeat CPU  0 instructions:  108000000 cycles:   65649819 heartbeat IPC: 0.78732 cumulative IPC: 0.53208 (Simulation time: 0 hr 3 min 8 sec) 
Heartbeat CPU  0 instructions:  109000001 cycles:   66950471 heartbeat IPC: 0.76885 cumulative IPC: 0.55093 (Simulation time: 0 hr 3 min 10 sec) 
Heartbeat CPU  0 instructions:  110000001 cycles:   68237869 heartbeat IPC: 0.77676 cumulative IPC: 0.56743 (Simulation time: 0 hr 3 min 13 sec) 
Heartbeat CPU  0 instructions:  111000001 cycles:   69493577 heartbeat IPC: 0.79636 cumulative IPC: 0.58266 (Simulation time: 0 hr 3 min 15 sec) 
Heartbeat CPU  0 instructions:  112000000 cycles:   70778117 heartbeat IPC: 0.77849 cumulative IPC: 0.59513 (Simulation time: 0 hr 3 min 17 sec) 
Heartbeat CPU  0 instructions:  113000003 cycles:   72053578 heartbeat IPC: 0.78403 cumulative IPC: 0.60637 (Simulation time: 0 hr 3 min 20 sec) 
Heartbeat CPU  0 instructions:  114000001 cycles:   73263696 heartbeat IPC: 0.82636 cumulative IPC: 0.61812 (Simulation time: 0 hr 3 min 22 sec) 
Heartbeat CPU  0 instructions:  115000001 cycles:   74491433 heartbeat IPC: 0.81451 cumulative IPC: 0.62822 (Simulation time: 0 hr 3 min 24 sec) 
Heartbeat CPU  0 instructions:  116000000 cycles:   75780928 heartbeat IPC: 0.77550 cumulative IPC: 0.63577 (Simulation time: 0 hr 3 min 26 sec) 
Heartbeat CPU  0 instructions:  117000000 cycles:   76806637 heartbeat IPC: 0.97494 cumulative IPC: 0.64905 (Simulation time: 0 hr 3 min 29 sec) 
Heartbeat CPU  0 instructions:  118000003 cycles:   77921270 heartbeat IPC: 0.89716 cumulative IPC: 0.65918 (Simulation time: 0 hr 3 min 31 sec) 
Heartbeat CPU  0 instructions:  119000000 cycles:   79230616 heartbeat IPC: 0.76374 cumulative IPC: 0.66396 (Simulation time: 0 hr 3 min 33 sec) 
Heartbeat CPU  0 instructions:  120000000 cycles:   80544872 heartbeat IPC: 0.76089 cumulative IPC: 0.66822 (Simulation time: 0 hr 3 min 35 sec) 
Heartbeat CPU  0 instructions:  121000001 cycles:   81860300 heartbeat IPC: 0.76021 cumulative IPC: 0.67209 (Simulation time: 0 hr 3 min 37 sec) 
Heartbeat CPU  0 instructions:  122000002 cycles:   83174158 heartbeat IPC: 0.76112 cumulative IPC: 0.67568 (Simulation time: 0 hr 3 min 40 sec) 
Heartbeat CPU  0 instructions:  123000000 cycles:   84487369 heartbeat IPC: 0.76149 cumulative IPC: 0.67901 (Simulation time: 0 hr 3 min 42 sec) 
Heartbeat CPU  0 instructions:  124000000 cycles:   85800311 heartbeat IPC: 0.76165 cumulative IPC: 0.68209 (Simulation time: 0 hr 3 min 44 sec) 
Heartbeat CPU  0 instructions:  125000002 cycles:   87113695 heartbeat IPC: 0.76139 cumulative IPC: 0.68495 (Simulation time: 0 hr 3 min 46 sec) 
Heartbeat CPU  0 instructions:  126000001 cycles:   88428652 heartbeat IPC: 0.76048 cumulative IPC: 0.68757 (Simulation time: 0 hr 3 min 48 sec) 
Heartbeat CPU  0 instructions:  127000003 cycles:   89742765 heartbeat IPC: 0.76097 cumulative IPC: 0.69004 (Simulation time: 0 hr 3 min 50 sec) 
Heartbeat CPU  0 instructions:  128000000 cycles:   91056500 heartbeat IPC: 0.76119 cumulative IPC: 0.69235 (Simulation time: 0 hr 3 min 53 sec) 
Heartbeat CPU  0 instructions:  129000001 cycles:   92367840 heartbeat IPC: 0.76258 cumulative IPC: 0.69456 (Simulation time: 0 hr 3 min 55 sec) 
Heartbeat CPU  0 instructions:  130000003 cycles:   93681360 heartbeat IPC: 0.76131 cumulative IPC: 0.69659 (Simulation time: 0 hr 3 min 57 sec) 
Heartbeat CPU  0 instructions:  131000000 cycles:   94996728 heartbeat IPC: 0.76024 cumulative IPC: 0.69848 (Simulation time: 0 hr 3 min 59 sec) 
Heartbeat CPU  0 instructions:  132000000 cycles:   96308695 heartbeat IPC: 0.76221 cumulative IPC: 0.70031 (Simulation time: 0 hr 4 min 1 sec) 
Heartbeat CPU  0 instructions:  133000000 cycles:   97619802 heartbeat IPC: 0.76271 cumulative IPC: 0.70205 (Simulation time: 0 hr 4 min 3 sec) 
Heartbeat CPU  0 instructions:  134000003 cycles:   98931537 heartbeat IPC: 0.76235 cumulative IPC: 0.70369 (Simulation time: 0 hr 4 min 6 sec) 
Heartbeat CPU  0 instructions:  135000003 cycles:  100247094 heartbeat IPC: 0.76013 cumulative IPC: 0.70518 (Simulation time: 0 hr 4 min 8 sec) 
Heartbeat CPU  0 instructions:  136000000 cycles:  101560855 heartbeat IPC: 0.76117 cumulative IPC: 0.70663 (Simulation time: 0 hr 4 min 10 sec) 
Heartbeat CPU  0 instructions:  137000003 cycles:  102877351 heartbeat IPC: 0.75959 cumulative IPC: 0.70796 (Simulation time: 0 hr 4 min 12 sec) 
Heartbeat CPU  0 instructions:  138000002 cycles:  104190180 heartbeat IPC: 0.76171 cumulative IPC: 0.70928 (Simulation time: 0 hr 4 min 14 sec) 
Heartbeat CPU  0 instructions:  139000002 cycles:  105503626 heartbeat IPC: 0.76136 cumulative IPC: 0.71052 (Simulation time: 0 hr 4 min 17 sec) 
Heartbeat CPU  0 instructions:  140000000 cycles:  106815242 heartbeat IPC: 0.76242 cumulative IPC: 0.71173 (Simulation time: 0 hr 4 min 19 sec) 
Heartbeat CPU  0 instructions:  141000000 cycles:  108130955 heartbeat IPC: 0.76004 cumulative IPC: 0.71284 (Simulation time: 0 hr 4 min 21 sec) 
Heartbeat CPU  0 instructions:  142000000 cycles:  109445169 heartbeat IPC: 0.76091 cumulative IPC: 0.71391 (Simulation time: 0 hr 4 min 23 sec) 
Heartbeat CPU  0 instructions:  143000003 cycles:  110760626 heartbeat IPC: 0.76019 cumulative IPC: 0.71493 (Simulation time: 0 hr 4 min 25 sec) 
Heartbeat CPU  0 instructions:  144000000 cycles:  112074389 heartbeat IPC: 0.76117 cumulative IPC: 0.71591 (Simulation time: 0 hr 4 min 27 sec) 
Heartbeat CPU  0 instructions:  145000001 cycles:  113388813 heartbeat IPC: 0.76079 cumulative IPC: 0.71685 (Simulation time: 0 hr 4 min 30 sec) 
Heartbeat CPU  0 instructions:  146000003 cycles:  114703245 heartbeat IPC: 0.76079 cumulative IPC: 0.71775 (Simulation time: 0 hr 4 min 32 sec) 
Heartbeat CPU  0 instructions:  147000000 cycles:  116013494 heartbeat IPC: 0.76321 cumulative IPC: 0.71867 (Simulation time: 0 hr 4 min 34 sec) 
Heartbeat CPU  0 instructions:  148000000 cycles:  117327003 heartbeat IPC: 0.76132 cumulative IPC: 0.71951 (Simulation time: 0 hr 4 min 36 sec) 
Heartbeat CPU  0 instructions:  149000003 cycles:  118639608 heartbeat IPC: 0.76185 cumulative IPC: 0.72032 (Simulation time: 0 hr 4 min 38 sec) 
Heartbeat CPU  0 instructions:  150000003 cycles:  119952772 heartbeat IPC: 0.76152 cumulative IPC: 0.72110 (Simulation time: 0 hr 4 min 41 sec) 
Heartbeat CPU  0 instructions:  151000000 cycles:  121267955 heartbeat IPC: 0.76035 cumulative IPC: 0.72183 (Simulation time: 0 hr 4 min 43 sec) 
Heartbeat CPU  0 instructions:  152000000 cycles:  122582711 heartbeat IPC: 0.76060 cumulative IPC: 0.72254 (Simulation time: 0 hr 4 min 45 sec) 
Heartbeat CPU  0 instructions:  153000002 cycles:  123898453 heartbeat IPC: 0.76003 cumulative IPC: 0.72321 (Simulation time: 0 hr 4 min 47 sec) 
Heartbeat CPU  0 instructions:  154000002 cycles:  125211102 heartbeat IPC: 0.76182 cumulative IPC: 0.72389 (Simulation time: 0 hr 4 min 49 sec) 
Heartbeat CPU  0 instructions:  155000001 cycles:  126525073 heartbeat IPC: 0.76105 cumulative IPC: 0.72454 (Simulation time: 0 hr 4 min 52 sec) 
Heartbeat CPU  0 instructions:  156000000 cycles:  127836707 heartbeat IPC: 0.76241 cumulative IPC: 0.72518 (Simulation time: 0 hr 4 min 54 sec) 
Heartbeat CPU  0 instructions:  157000000 cycles:  129152006 heartbeat IPC: 0.76028 cumulative IPC: 0.72577 (Simulation time: 0 hr 4 min 56 sec) 
Heartbeat CPU  0 instructions:  158000001 cycles:  130465357 heartbeat IPC: 0.76141 cumulative IPC: 0.72635 (Simulation time: 0 hr 4 min 58 sec) 
Heartbeat CPU  0 instructions:  159000003 cycles:  131776988 heartbeat IPC: 0.76241 cumulative IPC: 0.72694 (Simulation time: 0 hr 5 min 0 sec) 
Heartbeat CPU  0 instructions:  160000000 cycles:  133092500 heartbeat IPC: 0.76016 cumulative IPC: 0.72747 (Simulation time: 0 hr 5 min 2 sec) 
Heartbeat CPU  0 instructions:  161000001 cycles:  134406778 heartbeat IPC: 0.76087 cumulative IPC: 0.72799 (Simulation time: 0 hr 5 min 5 sec) 
Heartbeat CPU  0 instructions:  162000000 cycles:  135722307 heartbeat IPC: 0.76015 cumulative IPC: 0.72849 (Simulation time: 0 hr 5 min 7 sec) 
Heartbeat CPU  0 instructions:  163000003 cycles:  137035409 heartbeat IPC: 0.76156 cumulative IPC: 0.72899 (Simulation time: 0 hr 5 min 9 sec) 
Heartbeat CPU  0 instructions:  164000000 cycles:  138348805 heartbeat IPC: 0.76138 cumulative IPC: 0.72948 (Simulation time: 0 hr 5 min 11 sec) 
Heartbeat CPU  0 instructions:  165000000 cycles:  139660828 heartbeat IPC: 0.76218 cumulative IPC: 0.72996 (Simulation time: 0 hr 5 min 13 sec) 
Heartbeat CPU  0 instructions:  166000000 cycles:  140975626 heartbeat IPC: 0.76057 cumulative IPC: 0.73040 (Simulation time: 0 hr 5 min 16 sec) 
Heartbeat CPU  0 instructions:  167000003 cycles:  142289807 heartbeat IPC: 0.76093 cumulative IPC: 0.73084 (Simulation time: 0 hr 5 min 18 sec) 
Heartbeat CPU  0 instructions:  168000000 cycles:  143605066 heartbeat IPC: 0.76030 cumulative IPC: 0.73126 (Simulation time: 0 hr 5 min 20 sec) 
Heartbeat CPU  0 instructions:  169000003 cycles:  144919222 heartbeat IPC: 0.76095 cumulative IPC: 0.73167 (Simulation time: 0 hr 5 min 22 sec) 
Heartbeat CPU  0 instructions:  170000001 cycles:  146232324 heartbeat IPC: 0.76155 cumulative IPC: 0.73208 (Simulation time: 0 hr 5 min 24 sec) 
Heartbeat CPU  0 instructions:  171000002 cycles:  147545407 heartbeat IPC: 0.76157 cumulative IPC: 0.73248 (Simulation time: 0 hr 5 min 27 sec) 
Heartbeat CPU  0 instructions:  172000000 cycles:  148858339 heartbeat IPC: 0.76165 cumulative IPC: 0.73287 (Simulation time: 0 hr 5 min 29 sec) 
Heartbeat CPU  0 instructions:  173000002 cycles:  150172163 heartbeat IPC: 0.76114 cumulative IPC: 0.73324 (Simulation time: 0 hr 5 min 31 sec) 
Heartbeat CPU  0 instructions:  174000000 cycles:  151485637 heartbeat IPC: 0.76134 cumulative IPC: 0.73361 (Simulation time: 0 hr 5 min 33 sec) 
Heartbeat CPU  0 instructions:  175000001 cycles:  152797751 heartbeat IPC: 0.76213 cumulative IPC: 0.73398 (Simulation time: 0 hr 5 min 35 sec) 
Heartbeat CPU  0 instructions:  176000000 cycles:  154112486 heartbeat IPC: 0.76061 cumulative IPC: 0.73431 (Simulation time: 0 hr 5 min 37 sec) 
Heartbeat CPU  0 instructions:  177000000 cycles:  155426517 heartbeat IPC: 0.76102 cumulative IPC: 0.73465 (Simulation time: 0 hr 5 min 40 sec) 
Heartbeat CPU  0 instructions:  178000003 cycles:  156742110 heartbeat IPC: 0.76012 cumulative IPC: 0.73496 (Simulation time: 0 hr 5 min 42 sec) 
Heartbeat CPU  0 instructions:  179000000 cycles:  158054754 heartbeat IPC: 0.76182 cumulative IPC: 0.73529 (Simulation time: 0 hr 5 min 44 sec) 
Heartbeat CPU  0 instructions:  180000000 cycles:  159368299 heartbeat IPC: 0.76130 cumulative IPC: 0.73561 (Simulation time: 0 hr 5 min 46 sec) 
Heartbeat CPU  0 instructions:  181000003 cycles:  160679548 heartbeat IPC: 0.76263 cumulative IPC: 0.73593 (Simulation time: 0 hr 5 min 48 sec) 
Heartbeat CPU  0 instructions:  182000003 cycles:  161995675 heartbeat IPC: 0.75981 cumulative IPC: 0.73621 (Simulation time: 0 hr 5 min 51 sec) 
Heartbeat CPU  0 instructions:  183000003 cycles:  163309922 heartbeat IPC: 0.76089 cumulative IPC: 0.73650 (Simulation time: 0 hr 5 min 53 sec) 
Heartbeat CPU  0 instructions:  184000000 cycles:  164626601 heartbeat IPC: 0.75948 cumulative IPC: 0.73676 (Simulation time: 0 hr 5 min 55 sec) 
Heartbeat CPU  0 instructions:  185000002 cycles:  165939444 heartbeat IPC: 0.76171 cumulative IPC: 0.73705 (Simulation time: 0 hr 5 min 57 sec) 
Heartbeat CPU  0 instructions:  186000002 cycles:  167252700 heartbeat IPC: 0.76147 cumulative IPC: 0.73732 (Simulation time: 0 hr 5 min 59 sec) 
Heartbeat CPU  0 instructions:  187000001 cycles:  169367096 heartbeat IPC: 0.47295 cumulative IPC: 0.73262 (Simulation time: 0 hr 6 min 2 sec) 
Heartbeat CPU  0 instructions:  188000000 cycles:  171970443 heartbeat IPC: 0.38412 cumulative IPC: 0.72514 (Simulation time: 0 hr 6 min 4 sec) 
Heartbeat CPU  0 instructions:  189000000 cycles:  174534876 heartbeat IPC: 0.38995 cumulative IPC: 0.71820 (Simulation time: 0 hr 6 min 7 sec) 
Heartbeat CPU  0 instructions:  190000000 cycles:  177071477 heartbeat IPC: 0.39423 cumulative IPC: 0.71170 (Simulation time: 0 hr 6 min 10 sec) 
Heartbeat CPU  0 instructions:  191000003 cycles:  179605556 heartbeat IPC: 0.39462 cumulative IPC: 0.70548 (Simulation time: 0 hr 6 min 12 sec) 
Heartbeat CPU  0 instructions:  192000000 cycles:  182130825 heartbeat IPC: 0.39600 cumulative IPC: 0.69953 (Simulation time: 0 hr 6 min 15 sec) 
Heartbeat CPU  0 instructions:  193000003 cycles:  184647520 heartbeat IPC: 0.39735 cumulative IPC: 0.69386 (Simulation time: 0 hr 6 min 17 sec) 
Heartbeat CPU  0 instructions:  194000001 cycles:  187126497 heartbeat IPC: 0.40339 cumulative IPC: 0.68858 (Simulation time: 0 hr 6 min 20 sec) 
Heartbeat CPU  0 instructions:  195000000 cycles:  189651834 heartbeat IPC: 0.39599 cumulative IPC: 0.68327 (Simulation time: 0 hr 6 min 22 sec) 
Heartbeat CPU  0 instructions:  196000000 cycles:  192178013 heartbeat IPC: 0.39585 cumulative IPC: 0.67814 (Simulation time: 0 hr 6 min 25 sec) 
Heartbeat CPU  0 instructions:  197000000 cycles:  194731148 heartbeat IPC: 0.39168 cumulative IPC: 0.67307 (Simulation time: 0 hr 6 min 27 sec) 
Heartbeat CPU  0 instructions:  198000002 cycles:  197229517 heartbeat IPC: 0.40026 cumulative IPC: 0.66842 (Simulation time: 0 hr 6 min 30 sec) 
Heartbeat CPU  0 instructions:  199000001 cycles:  199714291 heartbeat IPC: 0.40245 cumulative IPC: 0.66398 (Simulation time: 0 hr 6 min 33 sec) 
Heartbeat CPU  0 instructions:  200000000 cycles:  202180865 heartbeat IPC: 0.40542 cumulative IPC: 0.65978 (Simulation time: 0 hr 6 min 35 sec) 
Heartbeat CPU  0 instructions:  201000001 cycles:  204651459 heartbeat IPC: 0.40476 cumulative IPC: 0.65569 (Simulation time: 0 hr 6 min 38 sec) 
Heartbeat CPU  0 instructions:  202000002 cycles:  207127421 heartbeat IPC: 0.40388 cumulative IPC: 0.65170 (Simulation time: 0 hr 6 min 40 sec) 
Heartbeat CPU  0 instructions:  203000000 cycles:  209601450 heartbeat IPC: 0.40420 cumulative IPC: 0.64785 (Simulation time: 0 hr 6 min 43 sec) 
Heartbeat CPU  0 instructions:  204000000 cycles:  212088217 heartbeat IPC: 0.40213 cumulative IPC: 0.64407 (Simulation time: 0 hr 6 min 45 sec) 
Heartbeat CPU  0 instructions:  205000003 cycles:  214608779 heartbeat IPC: 0.39674 cumulative IPC: 0.64027 (Simulation time: 0 hr 6 min 48 sec) 
Heartbeat CPU  0 instructions:  206000000 cycles:  217138797 heartbeat IPC: 0.39525 cumulative IPC: 0.63654 (Simulation time: 0 hr 6 min 51 sec) 
Heartbeat CPU  0 instructions:  207000001 cycles:  219618331 heartbeat IPC: 0.40330 cumulative IPC: 0.63312 (Simulation time: 0 hr 6 min 53 sec) 
Heartbeat CPU  0 instructions:  208000000 cycles:  222074244 heartbeat IPC: 0.40718 cumulative IPC: 0.62989 (Simulation time: 0 hr 6 min 56 sec) 
Heartbeat CPU  0 instructions:  209000001 cycles:  224537402 heartbeat IPC: 0.40598 cumulative IPC: 0.62671 (Simulation time: 0 hr 6 min 58 sec) 
Heartbeat CPU  0 instructions:  210000003 cycles:  226991888 heartbeat IPC: 0.40742 cumulative IPC: 0.62366 (Simulation time: 0 hr 7 min 1 sec) 
Heartbeat CPU  0 instructions:  211000001 cycles:  229440641 heartbeat IPC: 0.40837 cumulative IPC: 0.62071 (Simulation time: 0 hr 7 min 3 sec) 
Heartbeat CPU  0 instructions:  212000000 cycles:  231893494 heartbeat IPC: 0.40769 cumulative IPC: 0.61783 (Simulation time: 0 hr 7 min 6 sec) 
Heartbeat CPU  0 instructions:  213000001 cycles:  234217608 heartbeat IPC: 0.43027 cumulative IPC: 0.61546 (Simulation time: 0 hr 7 min 9 sec) 
Heartbeat CPU  0 instructions:  214000002 cycles:  236417763 heartbeat IPC: 0.45451 cumulative IPC: 0.61355 (Simulation time: 0 hr 7 min 12 sec) 
Heartbeat CPU  0 instructions:  215000002 cycles:  238650715 heartbeat IPC: 0.44784 cumulative IPC: 0.61158 (Simulation time: 0 hr 7 min 15 sec) 
Heartbeat CPU  0 instructions:  216000000 cycles:  240826108 heartbeat IPC: 0.45969 cumulative IPC: 0.60985 (Simulation time: 0 hr 7 min 18 sec) 
Heartbeat CPU  0 instructions:  217000002 cycles:  242819448 heartbeat IPC: 0.50167 cumulative IPC: 0.60873 (Simulation time: 0 hr 7 min 20 sec) 
Heartbeat CPU  0 instructions:  218000003 cycles:  244933278 heartbeat IPC: 0.47308 cumulative IPC: 0.60725 (Simulation time: 0 hr 7 min 23 sec) 
Heartbeat CPU  0 instructions:  219000000 cycles:  246865394 heartbeat IPC: 0.51757 cumulative IPC: 0.60637 (Simulation time: 0 hr 7 min 26 sec) 
Heartbeat CPU  0 instructions:  220000000 cycles:  248965361 heartbeat IPC: 0.47620 cumulative IPC: 0.60499 (Simulation time: 0 hr 7 min 29 sec) 
Heartbeat CPU  0 instructions:  221000000 cycles:  250904709 heartbeat IPC: 0.51564 cumulative IPC: 0.60412 (Simulation time: 0 hr 7 min 32 sec) 
Heartbeat CPU  0 instructions:  222000001 cycles:  252999978 heartbeat IPC: 0.47727 cumulative IPC: 0.60281 (Simulation time: 0 hr 7 min 34 sec) 
Heartbeat CPU  0 instructions:  223000000 cycles:  254921351 heartbeat IPC: 0.52046 cumulative IPC: 0.60204 (Simulation time: 0 hr 7 min 37 sec) 
Heartbeat CPU  0 instructions:  224000000 cycles:  257005413 heartbeat IPC: 0.47983 cumulative IPC: 0.60080 (Simulation time: 0 hr 7 min 40 sec) 
Heartbeat CPU  0 instructions:  225000003 cycles:  258986532 heartbeat IPC: 0.50477 cumulative IPC: 0.59989 (Simulation time: 0 hr 7 min 43 sec) 
Heartbeat CPU  0 instructions:  226000003 cycles:  261056375 heartbeat IPC: 0.48313 cumulative IPC: 0.59874 (Simulation time: 0 hr 7 min 46 sec) 
Heartbeat CPU  0 instructions:  227000002 cycles:  263038762 heartbeat IPC: 0.50444 cumulative IPC: 0.59786 (Simulation time: 0 hr 7 min 48 sec) 
Heartbeat CPU  0 instructions:  228000000 cycles:  265110080 heartbeat IPC: 0.48278 cumulative IPC: 0.59675 (Simulation time: 0 hr 7 min 51 sec) 
Heartbeat CPU  0 instructions:  229000001 cycles:  267116267 heartbeat IPC: 0.49846 cumulative IPC: 0.59584 (Simulation time: 0 hr 7 min 54 sec) 
Heartbeat CPU  0 instructions:  230000000 cycles:  269126511 heartbeat IPC: 0.49745 cumulative IPC: 0.59493 (Simulation time: 0 hr 7 min 57 sec) 
Heartbeat CPU  0 instructions:  231000001 cycles:  271152127 heartbeat IPC: 0.49368 cumulative IPC: 0.59400 (Simulation time: 0 hr 7 min 59 sec) 
Heartbeat CPU  0 instructions:  232000000 cycles:  273164479 heartbeat IPC: 0.49693 cumulative IPC: 0.59313 (Simulation time: 0 hr 8 min 2 sec) 
Heartbeat CPU  0 instructions:  233000001 cycles:  275210174 heartbeat IPC: 0.48883 cumulative IPC: 0.59218 (Simulation time: 0 hr 8 min 5 sec) 
Heartbeat CPU  0 instructions:  234000000 cycles:  277208767 heartbeat IPC: 0.50035 cumulative IPC: 0.59137 (Simulation time: 0 hr 8 min 8 sec) 
Heartbeat CPU  0 instructions:  235000002 cycles:  279298051 heartbeat IPC: 0.47863 cumulative IPC: 0.59034 (Simulation time: 0 hr 8 min 10 sec) 
Heartbeat CPU  0 instructions:  236000000 cycles:  281286581 heartbeat IPC: 0.50288 cumulative IPC: 0.58958 (Simulation time: 0 hr 8 min 13 sec) 
Heartbeat CPU  0 instructions:  237000003 cycles:  283398809 heartbeat IPC: 0.47344 cumulative IPC: 0.58853 (Simulation time: 0 hr 8 min 16 sec) 
Heartbeat CPU  0 instructions:  238000003 cycles:  285340454 heartbeat IPC: 0.51503 cumulative IPC: 0.58792 (Simulation time: 0 hr 8 min 19 sec) 
Heartbeat CPU  0 instructions:  239000000 cycles:  287483107 heartbeat IPC: 0.46671 cumulative IPC: 0.58682 (Simulation time: 0 hr 8 min 22 sec) 
Heartbeat CPU  0 instructions:  240000000 cycles:  289458998 heartbeat IPC: 0.50610 cumulative IPC: 0.58616 (Simulation time: 0 hr 8 min 24 sec) 
Heartbeat CPU  0 instructions:  241000000 cycles:  291618337 heartbeat IPC: 0.46310 cumulative IPC: 0.58505 (Simulation time: 0 hr 8 min 27 sec) 
Heartbeat CPU  0 instructions:  242000001 cycles:  293598191 heartbeat IPC: 0.50509 cumulative IPC: 0.58440 (Simulation time: 0 hr 8 min 30 sec) 
Heartbeat CPU  0 instructions:  243000000 cycles:  295722954 heartbeat IPC: 0.47064 cumulative IPC: 0.58342 (Simulation time: 0 hr 8 min 33 sec) 
Heartbeat CPU  0 instructions:  244000000 cycles:  297693682 heartbeat IPC: 0.50743 cumulative IPC: 0.58281 (Simulation time: 0 hr 8 min 36 sec) 
Heartbeat CPU  0 instructions:  245000002 cycles:  299787039 heartbeat IPC: 0.47770 cumulative IPC: 0.58193 (Simulation time: 0 hr 8 min 38 sec) 
Heartbeat CPU  0 instructions:  246000001 cycles:  301820372 heartbeat IPC: 0.49180 cumulative IPC: 0.58120 (Simulation time: 0 hr 8 min 41 sec) 
Heartbeat CPU  0 instructions:  247000003 cycles:  303911927 heartbeat IPC: 0.47811 cumulative IPC: 0.58035 (Simulation time: 0 hr 8 min 44 sec) 
Heartbeat CPU  0 instructions:  248000000 cycles:  306048647 heartbeat IPC: 0.46801 cumulative IPC: 0.57941 (Simulation time: 0 hr 8 min 47 sec) 
Heartbeat CPU  0 instructions:  249000003 cycles:  308212946 heartbeat IPC: 0.46204 cumulative IPC: 0.57842 (Simulation time: 0 hr 8 min 50 sec) 
Heartbeat CPU  0 instructions:  250000000 cycles:  310364611 heartbeat IPC: 0.46475 cumulative IPC: 0.57748 (Simulation time: 0 hr 8 min 53 sec) 
Heartbeat CPU  0 instructions:  251000000 cycles:  312257164 heartbeat IPC: 0.52839 cumulative IPC: 0.57712 (Simulation time: 0 hr 8 min 55 sec) 
Heartbeat CPU  0 instructions:  252000000 cycles:  313757105 heartbeat IPC: 0.66669 cumulative IPC: 0.57763 (Simulation time: 0 hr 8 min 58 sec) 
Heartbeat CPU  0 instructions:  253000002 cycles:  315291033 heartbeat IPC: 0.65192 cumulative IPC: 0.57806 (Simulation time: 0 hr 9 min 0 sec) 
Heartbeat CPU  0 instructions:  254000003 cycles:  316798420 heartbeat IPC: 0.66340 cumulative IPC: 0.57855 (Simulation time: 0 hr 9 min 2 sec) 
Heartbeat CPU  0 instructions:  255000000 cycles:  318320698 heartbeat IPC: 0.65691 cumulative IPC: 0.57899 (Simulation time: 0 hr 9 min 5 sec) 
Heartbeat CPU  0 instructions:  256000000 cycles:  319833036 heartbeat IPC: 0.66123 cumulative IPC: 0.57945 (Simulation time: 0 hr 9 min 7 sec) 
Heartbeat CPU  0 instructions:  257000000 cycles:  321296362 heartbeat IPC: 0.68337 cumulative IPC: 0.58002 (Simulation time: 0 hr 9 min 10 sec) 
Heartbeat CPU  0 instructions:  258000002 cycles:  322668203 heartbeat IPC: 0.72895 cumulative IPC: 0.58077 (Simulation time: 0 hr 9 min 12 sec) 
Heartbeat CPU  0 instructions:  259000000 cycles:  323987830 heartbeat IPC: 0.75779 cumulative IPC: 0.58162 (Simulation time: 0 hr 9 min 14 sec) 
Heartbeat CPU  0 instructions:  260000000 cycles:  325283714 heartbeat IPC: 0.77167 cumulative IPC: 0.58252 (Simulation time: 0 hr 9 min 16 sec) 
Heartbeat CPU  0 instructions:  261000001 cycles:  326598140 heartbeat IPC: 0.76079 cumulative IPC: 0.58337 (Simulation time: 0 hr 9 min 19 sec) 
Heartbeat CPU  0 instructions:  262000000 cycles:  327957167 heartbeat IPC: 0.73582 cumulative IPC: 0.58411 (Simulation time: 0 hr 9 min 21 sec) 
Heartbeat CPU  0 instructions:  263000002 cycles:  329228196 heartbeat IPC: 0.78677 cumulative IPC: 0.58504 (Simulation time: 0 hr 9 min 23 sec) 
Heartbeat CPU  0 instructions:  264000000 cycles:  330459969 heartbeat IPC: 0.81184 cumulative IPC: 0.58604 (Simulation time: 0 hr 9 min 25 sec) 
Heartbeat CPU  0 instructions:  265000002 cycles:  331667022 heartbeat IPC: 0.82847 cumulative IPC: 0.58708 (Simulation time: 0 hr 9 min 27 sec) 
Heartbeat CPU  0 instructions:  266000000 cycles:  332892078 heartbeat IPC: 0.81629 cumulative IPC: 0.58807 (Simulation time: 0 hr 9 min 30 sec) 
Heartbeat CPU  0 instructions:  267000000 cycles:  334147969 heartbeat IPC: 0.79625 cumulative IPC: 0.58900 (Simulation time: 0 hr 9 min 32 sec) 
Heartbeat CPU  0 instructions:  268000000 cycles:  335477170 heartbeat IPC: 0.75233 cumulative IPC: 0.58976 (Simulation time: 0 hr 9 min 34 sec) 
Heartbeat CPU  0 instructions:  269000000 cycles:  336742866 heartbeat IPC: 0.79008 cumulative IPC: 0.59064 (Simulation time: 0 hr 9 min 36 sec) 
Heartbeat CPU  0 instructions:  270000001 cycles:  338021157 heartbeat IPC: 0.78230 cumulative IPC: 0.59150 (Simulation time: 0 hr 9 min 38 sec) 
Heartbeat CPU  0 instructions:  271000001 cycles:  339271970 heartbeat IPC: 0.79948 cumulative IPC: 0.59240 (Simulation time: 0 hr 9 min 41 sec) 
Heartbeat CPU  0 instructions:  272000000 cycles:  340640490 heartbeat IPC: 0.73072 cumulative IPC: 0.59305 (Simulation time: 0 hr 9 min 43 sec) 
Heartbeat CPU  0 instructions:  273000000 cycles:  341959658 heartbeat IPC: 0.75805 cumulative IPC: 0.59380 (Simulation time: 0 hr 9 min 45 sec) 
Heartbeat CPU  0 instructions:  274000001 cycles:  343248835 heartbeat IPC: 0.77569 cumulative IPC: 0.59460 (Simulation time: 0 hr 9 min 47 sec) 
Heartbeat CPU  0 instructions:  275000000 cycles:  344549610 heartbeat IPC: 0.76877 cumulative IPC: 0.59537 (Simulation time: 0 hr 9 min 50 sec) 
Heartbeat CPU  0 instructions:  276000000 cycles:  345822574 heartbeat IPC: 0.78557 cumulative IPC: 0.59619 (Simulation time: 0 hr 9 min 52 sec) 
Heartbeat CPU  0 instructions:  277000002 cycles:  347142009 heartbeat IPC: 0.75790 cumulative IPC: 0.59691 (Simulation time: 0 hr 9 min 54 sec) 
Heartbeat CPU  0 instructions:  278000002 cycles:  348495198 heartbeat IPC: 0.73900 cumulative IPC: 0.59755 (Simulation time: 0 hr 9 min 56 sec) 
Heartbeat CPU  0 instructions:  279000000 cycles:  349808174 heartbeat IPC: 0.76163 cumulative IPC: 0.59827 (Simulation time: 0 hr 9 min 59 sec) 
Heartbeat CPU  0 instructions:  280000000 cycles:  351100053 heartbeat IPC: 0.77407 cumulative IPC: 0.59903 (Simulation time: 0 hr 10 min 1 sec) 
Heartbeat CPU  0 instructions:  281000002 cycles:  352367390 heartbeat IPC: 0.78906 cumulative IPC: 0.59983 (Simulation time: 0 hr 10 min 3 sec) 
Heartbeat CPU  0 instructions:  282000002 cycles:  353702461 heartbeat IPC: 0.74902 cumulative IPC: 0.60049 (Simulation time: 0 hr 10 min 5 sec) 
Heartbeat CPU  0 instructions:  283000003 cycles:  355110926 heartbeat IPC: 0.70999 cumulative IPC: 0.60099 (Simulation time: 0 hr 10 min 8 sec) 
Heartbeat CPU  0 instructions:  284000000 cycles:  356474590 heartbeat IPC: 0.73332 cumulative IPC: 0.60158 (Simulation time: 0 hr 10 min 10 sec) 
Heartbeat CPU  0 instructions:  285000003 cycles:  357853969 heartbeat IPC: 0.72497 cumulative IPC: 0.60214 (Simulation time: 0 hr 10 min 12 sec) 
Heartbeat CPU  0 instructions:  286000003 cycles:  359229565 heartbeat IPC: 0.72696 cumulative IPC: 0.60269 (Simulation time: 0 hr 10 min 14 sec) 
Heartbeat CPU  0 instructions:  287000003 cycles:  360597436 heartbeat IPC: 0.73106 cumulative IPC: 0.60326 (Simulation time: 0 hr 10 min 17 sec) 
Heartbeat CPU  0 instructions:  288000000 cycles:  362002133 heartbeat IPC: 0.71190 cumulative IPC: 0.60375 (Simulation time: 0 hr 10 min 19 sec) 
Heartbeat CPU  0 instructions:  289000001 cycles:  363366014 heartbeat IPC: 0.73320 cumulative IPC: 0.60431 (Simulation time: 0 hr 10 min 21 sec) 
Heartbeat CPU  0 instructions:  290000003 cycles:  364666831 heartbeat IPC: 0.76875 cumulative IPC: 0.60499 (Simulation time: 0 hr 10 min 23 sec) 
Heartbeat CPU  0 instructions:  291000003 cycles:  365970196 heartbeat IPC: 0.76724 cumulative IPC: 0.60567 (Simulation time: 0 hr 10 min 26 sec) 
Heartbeat CPU  0 instructions:  292000000 cycles:  367278486 heartbeat IPC: 0.76435 cumulative IPC: 0.60632 (Simulation time: 0 hr 10 min 28 sec) 
Heartbeat CPU  0 instructions:  293000002 cycles:  368685695 heartbeat IPC: 0.71063 cumulative IPC: 0.60678 (Simulation time: 0 hr 10 min 30 sec) 
Heartbeat CPU  0 instructions:  294000002 cycles:  370115467 heartbeat IPC: 0.69941 cumulative IPC: 0.60720 (Simulation time: 0 hr 10 min 32 sec) 
Heartbeat CPU  0 instructions:  295000003 cycles:  371513583 heartbeat IPC: 0.71525 cumulative IPC: 0.60767 (Simulation time: 0 hr 10 min 35 sec) 
Heartbeat CPU  0 instructions:  296000000 cycles:  372934559 heartbeat IPC: 0.70374 cumulative IPC: 0.60809 (Simulation time: 0 hr 10 min 37 sec) 
Heartbeat CPU  0 instructions:  297000003 cycles:  374322657 heartbeat IPC: 0.72041 cumulative IPC: 0.60857 (Simulation time: 0 hr 10 min 39 sec) 
Heartbeat CPU  0 instructions:  298000002 cycles:  375727203 heartbeat IPC: 0.71197 cumulative IPC: 0.60902 (Simulation time: 0 hr 10 min 42 sec) 
Heartbeat CPU  0 instructions:  299000003 cycles:  377126562 heartbeat IPC: 0.71461 cumulative IPC: 0.60947 (Simulation time: 0 hr 10 min 44 sec) 
Heartbeat CPU  0 instructions:  300000000 cycles:  378451460 heartbeat IPC: 0.75477 cumulative IPC: 0.61006 (Simulation time: 0 hr 10 min 46 sec) 
Heartbeat CPU  0 instructions:  301000000 cycles:  379767222 heartbeat IPC: 0.76002 cumulative IPC: 0.61066 (Simulation time: 0 hr 10 min 48 sec) 
Heartbeat CPU  0 instructions:  302000003 cycles:  381044571 heartbeat IPC: 0.78287 cumulative IPC: 0.61132 (Simulation time: 0 hr 10 min 51 sec) 
Heartbeat CPU  0 instructions:  303000000 cycles:  382384882 heartbeat IPC: 0.74609 cumulative IPC: 0.61187 (Simulation time: 0 hr 10 min 53 sec) 
Heartbeat CPU  0 instructions:  304000000 cycles:  383826931 heartbeat IPC: 0.69346 cumulative IPC: 0.61222 (Simulation time: 0 hr 10 min 55 sec) 
Heartbeat CPU  0 instructions:  305000003 cycles:  385294593 heartbeat IPC: 0.68136 cumulative IPC: 0.61253 (Simulation time: 0 hr 10 min 57 sec) 
Heartbeat CPU  0 instructions:  306000001 cycles:  386735793 heartbeat IPC: 0.69386 cumulative IPC: 0.61287 (Simulation time: 0 hr 11 min 0 sec) 
Heartbeat CPU  0 instructions:  307000003 cycles:  388187870 heartbeat IPC: 0.68867 cumulative IPC: 0.61320 (Simulation time: 0 hr 11 min 2 sec) 
Heartbeat CPU  0 instructions:  308000000 cycles:  389619484 heartbeat IPC: 0.69851 cumulative IPC: 0.61356 (Simulation time: 0 hr 11 min 4 sec) 
Heartbeat CPU  0 instructions:  309000001 cycles:  391083820 heartbeat IPC: 0.68290 cumulative IPC: 0.61386 (Simulation time: 0 hr 11 min 7 sec) 
Heartbeat CPU  0 instructions:  310000000 cycles:  392417286 heartbeat IPC: 0.74992 cumulative IPC: 0.61439 (Simulation time: 0 hr 11 min 9 sec) 
Heartbeat CPU  0 instructions:  311000000 cycles:  393718916 heartbeat IPC: 0.76827 cumulative IPC: 0.61497 (Simulation time: 0 hr 11 min 11 sec) 
Heartbeat CPU  0 instructions:  312000000 cycles:  395011079 heartbeat IPC: 0.77390 cumulative IPC: 0.61557 (Simulation time: 0 hr 11 min 13 sec) 
Heartbeat CPU  0 instructions:  313000003 cycles:  396309355 heartbeat IPC: 0.77025 cumulative IPC: 0.61615 (Simulation time: 0 hr 11 min 16 sec) 
Heartbeat CPU  0 instructions:  314000001 cycles:  397731953 heartbeat IPC: 0.70294 cumulative IPC: 0.61651 (Simulation time: 0 hr 11 min 18 sec) 
Heartbeat CPU  0 instructions:  315000000 cycles:  399190678 heartbeat IPC: 0.68553 cumulative IPC: 0.61679 (Simulation time: 0 hr 11 min 20 sec) 
Heartbeat CPU  0 instructions:  316000000 cycles:  400642100 heartbeat IPC: 0.68898 cumulative IPC: 0.61709 (Simulation time: 0 hr 11 min 22 sec) 
Heartbeat CPU  0 instructions:  317000003 cycles:  402102177 heartbeat IPC: 0.68490 cumulative IPC: 0.61738 (Simulation time: 0 hr 11 min 25 sec) 
Heartbeat CPU  0 instructions:  318000002 cycles:  403567429 heartbeat IPC: 0.68248 cumulative IPC: 0.61765 (Simulation time: 0 hr 11 min 27 sec) 
Heartbeat CPU  0 instructions:  319000002 cycles:  404998297 heartbeat IPC: 0.69888 cumulative IPC: 0.61797 (Simulation time: 0 hr 11 min 29 sec) 
Heartbeat CPU  0 instructions:  320000000 cycles:  406438325 heartbeat IPC: 0.69443 cumulative IPC: 0.61828 (Simulation time: 0 hr 11 min 32 sec) 
Heartbeat CPU  0 instructions:  321000002 cycles:  407741119 heartbeat IPC: 0.76758 cumulative IPC: 0.61883 (Simulation time: 0 hr 11 min 34 sec) 
Heartbeat CPU  0 instructions:  322000002 cycles:  409032254 heartbeat IPC: 0.77451 cumulative IPC: 0.61939 (Simulation time: 0 hr 11 min 36 sec) 
Heartbeat CPU  0 instructions:  323000002 cycles:  410331576 heartbeat IPC: 0.76963 cumulative IPC: 0.61993 (Simulation time: 0 hr 11 min 38 sec) 
Heartbeat CPU  0 instructions:  324000000 cycles:  411672754 heartbeat IPC: 0.74561 cumulative IPC: 0.62040 (Simulation time: 0 hr 11 min 41 sec) 
Heartbeat CPU  0 instructions:  325000002 cycles:  413124535 heartbeat IPC: 0.68881 cumulative IPC: 0.62067 (Simulation time: 0 hr 11 min 43 sec) 
Heartbeat CPU  0 instructions:  326000000 cycles:  414592349 heartbeat IPC: 0.68128 cumulative IPC: 0.62092 (Simulation time: 0 hr 11 min 45 sec) 
Heartbeat CPU  0 instructions:  327000002 cycles:  416008435 heartbeat IPC: 0.70617 cumulative IPC: 0.62125 (Simulation time: 0 hr 11 min 47 sec) 
Heartbeat CPU  0 instructions:  328000000 cycles:  417459598 heartbeat IPC: 0.68910 cumulative IPC: 0.62152 (Simulation time: 0 hr 11 min 50 sec) 
Heartbeat CPU  0 instructions:  329000001 cycles:  418901655 heartbeat IPC: 0.69345 cumulative IPC: 0.62180 (Simulation time: 0 hr 11 min 52 sec) 
Heartbeat CPU  0 instructions:  330000001 cycles:  420355411 heartbeat IPC: 0.68787 cumulative IPC: 0.62206 (Simulation time: 0 hr 11 min 54 sec) 
Heartbeat CPU  0 instructions:  331000001 cycles:  421698260 heartbeat IPC: 0.74469 cumulative IPC: 0.62250 (Simulation time: 0 hr 11 min 56 sec) 
Heartbeat CPU  0 instructions:  332000000 cycles:  422986195 heartbeat IPC: 0.77644 cumulative IPC: 0.62303 (Simulation time: 0 hr 11 min 59 sec) 
Heartbeat CPU  0 instructions:  333000001 cycles:  424241975 heartbeat IPC: 0.79632 cumulative IPC: 0.62362 (Simulation time: 0 hr 12 min 1 sec) 
Heartbeat CPU  0 instructions:  334000003 cycles:  425518721 heartbeat IPC: 0.78324 cumulative IPC: 0.62416 (Simulation time: 0 hr 12 min 3 sec) 
Heartbeat CPU  0 instructions:  335000002 cycles:  426980629 heartbeat IPC: 0.68404 cumulative IPC: 0.62439 (Simulation time: 0 hr 12 min 5 sec) 
Heartbeat CPU  0 instructions:  336000000 cycles:  428415587 heartbeat IPC: 0.69688 cumulative IPC: 0.62467 (Simulation time: 0 hr 12 min 8 sec) 
Heartbeat CPU  0 instructions:  337000002 cycles:  429870599 heartbeat IPC: 0.68728 cumulative IPC: 0.62491 (Simulation time: 0 hr 12 min 10 sec) 
Heartbeat CPU  0 instructions:  338000002 cycles:  431300374 heartbeat IPC: 0.69941 cumulative IPC: 0.62519 (Simulation time: 0 hr 12 min 12 sec) 
Heartbeat CPU  0 instructions:  339000002 cycles:  432751575 heartbeat IPC: 0.68908 cumulative IPC: 0.62543 (Simulation time: 0 hr 12 min 15 sec) 
Heartbeat CPU  0 instructions:  340000000 cycles:  434194716 heartbeat IPC: 0.69293 cumulative IPC: 0.62568 (Simulation time: 0 hr 12 min 17 sec) 
Heartbeat CPU  0 instructions:  341000001 cycles:  435611829 heartbeat IPC: 0.70566 cumulative IPC: 0.62598 (Simulation time: 0 hr 12 min 19 sec) 
Heartbeat CPU  0 instructions:  342000003 cycles:  436919762 heartbeat IPC: 0.76457 cumulative IPC: 0.62645 (Simulation time: 0 hr 12 min 21 sec) 
Heartbeat CPU  0 instructions:  343000003 cycles:  438234149 heartbeat IPC: 0.76081 cumulative IPC: 0.62690 (Simulation time: 0 hr 12 min 24 sec) 
Heartbeat CPU  0 instructions:  344000000 cycles:  439512191 heartbeat IPC: 0.78244 cumulative IPC: 0.62741 (Simulation time: 0 hr 12 min 26 sec) 
Heartbeat CPU  0 instructions:  345000001 cycles:  440868041 heartbeat IPC: 0.73755 cumulative IPC: 0.62780 (Simulation time: 0 hr 12 min 28 sec) 
Heartbeat CPU  0 instructions:  346000003 cycles:  442312582 heartbeat IPC: 0.69226 cumulative IPC: 0.62803 (Simulation time: 0 hr 12 min 30 sec) 
Heartbeat CPU  0 instructions:  347000003 cycles:  443769347 heartbeat IPC: 0.68645 cumulative IPC: 0.62825 (Simulation time: 0 hr 12 min 33 sec) 
Heartbeat CPU  0 instructions:  348000000 cycles:  445211180 heartbeat IPC: 0.69356 cumulative IPC: 0.62849 (Simulation time: 0 hr 12 min 35 sec) 
Heartbeat CPU  0 instructions:  349000000 cycles:  446635749 heartbeat IPC: 0.70197 cumulative IPC: 0.62875 (Simulation time: 0 hr 12 min 37 sec) 
Heartbeat CPU  0 instructions:  350000003 cycles:  448100341 heartbeat IPC: 0.68279 cumulative IPC: 0.62895 (Simulation time: 0 hr 12 min 40 sec) 
Heartbeat CPU  0 instructions:  351000000 cycles:  449531070 heartbeat IPC: 0.69894 cumulative IPC: 0.62920 (Simulation time: 0 hr 12 min 42 sec) 
Heartbeat CPU  0 instructions:  352000000 cycles:  450891263 heartbeat IPC: 0.73519 cumulative IPC: 0.62956 (Simulation time: 0 hr 12 min 44 sec) 
Heartbeat CPU  0 instructions:  353000003 cycles:  452180434 heartbeat IPC: 0.77569 cumulative IPC: 0.63003 (Simulation time: 0 hr 12 min 46 sec) 
Heartbeat CPU  0 instructions:  354000003 cycles:  453465666 heartbeat IPC: 0.77807 cumulative IPC: 0.63051 (Simulation time: 0 hr 12 min 49 sec) 
Heartbeat CPU  0 instructions:  355000000 cycles:  454755023 heartbeat IPC: 0.77558 cumulative IPC: 0.63097 (Simulation time: 0 hr 12 min 51 sec) 
Heartbeat CPU  0 instructions:  356000000 cycles:  456237633 heartbeat IPC: 0.67449 cumulative IPC: 0.63113 (Simulation time: 0 hr 12 min 53 sec) 
Heartbeat CPU  0 instructions:  357000001 cycles:  457668968 heartbeat IPC: 0.69865 cumulative IPC: 0.63137 (Simulation time: 0 hr 12 min 55 sec) 
Heartbeat CPU  0 instructions:  358000003 cycles:  459116694 heartbeat IPC: 0.69074 cumulative IPC: 0.63158 (Simulation time: 0 hr 12 min 58 sec) 
Heartbeat CPU  0 instructions:  359000000 cycles:  460553975 heartbeat IPC: 0.69576 cumulative IPC: 0.63180 (Simulation time: 0 hr 13 min 0 sec) 
Heartbeat CPU  0 instructions:  360000000 cycles:  461998592 heartbeat IPC: 0.69222 cumulative IPC: 0.63201 (Simulation time: 0 hr 13 min 2 sec) 
Heartbeat CPU  0 instructions:  361000002 cycles:  463449763 heartbeat IPC: 0.68910 cumulative IPC: 0.63221 (Simulation time: 0 hr 13 min 5 sec) 
Heartbeat CPU  0 instructions:  362000002 cycles:  464850846 heartbeat IPC: 0.71373 cumulative IPC: 0.63249 (Simulation time: 0 hr 13 min 7 sec) 
Heartbeat CPU  0 instructions:  363000002 cycles:  466199742 heartbeat IPC: 0.74135 cumulative IPC: 0.63284 (Simulation time: 0 hr 13 min 9 sec) 
Heartbeat CPU  0 instructions:  364000000 cycles:  467492459 heartbeat IPC: 0.77356 cumulative IPC: 0.63328 (Simulation time: 0 hr 13 min 11 sec) 
Heartbeat CPU  0 instructions:  365000001 cycles:  468780048 heartbeat IPC: 0.77665 cumulative IPC: 0.63372 (Simulation time: 0 hr 13 min 14 sec) 
Heartbeat CPU  0 instructions:  366000001 cycles:  470164643 heartbeat IPC: 0.72223 cumulative IPC: 0.63401 (Simulation time: 0 hr 13 min 16 sec) 
Heartbeat CPU  0 instructions:  367000003 cycles:  471632790 heartbeat IPC: 0.68113 cumulative IPC: 0.63418 (Simulation time: 0 hr 13 min 18 sec) 
Heartbeat CPU  0 instructions:  368000000 cycles:  473069141 heartbeat IPC: 0.69621 cumulative IPC: 0.63439 (Simulation time: 0 hr 13 min 21 sec) 
Heartbeat CPU  0 instructions:  369000001 cycles:  474523092 heartbeat IPC: 0.68778 cumulative IPC: 0.63457 (Simulation time: 0 hr 13 min 23 sec) 
Heartbeat CPU  0 instructions:  370000002 cycles:  475966663 heartbeat IPC: 0.69273 cumulative IPC: 0.63477 (Simulation time: 0 hr 13 min 25 sec) 
Heartbeat CPU  0 instructions:  371000002 cycles:  477429813 heartbeat IPC: 0.68346 cumulative IPC: 0.63494 (Simulation time: 0 hr 13 min 27 sec) 
Heartbeat CPU  0 instructions:  372000000 cycles:  478853037 heartbeat IPC: 0.70263 cumulative IPC: 0.63516 (Simulation time: 0 hr 13 min 30 sec) 
Heartbeat CPU  0 instructions:  373000001 cycles:  480202313 heartbeat IPC: 0.74114 cumulative IPC: 0.63549 (Simulation time: 0 hr 13 min 32 sec) 
Heartbeat CPU  0 instructions:  374000001 cycles:  481509383 heartbeat IPC: 0.76507 cumulative IPC: 0.63589 (Simulation time: 0 hr 13 min 34 sec) 
Heartbeat CPU  0 instructions:  375000003 cycles:  482826838 heartbeat IPC: 0.75904 cumulative IPC: 0.63626 (Simulation time: 0 hr 13 min 36 sec) 
Heartbeat CPU  0 instructions:  376000000 cycles:  484098909 heartbeat IPC: 0.78612 cumulative IPC: 0.63670 (Simulation time: 0 hr 13 min 39 sec) 
Heartbeat CPU  0 instructions:  377000002 cycles:  485558522 heartbeat IPC: 0.68511 cumulative IPC: 0.63686 (Simulation time: 0 hr 13 min 41 sec) 
Heartbeat CPU  0 instructions:  378000000 cycles:  487010155 heartbeat IPC: 0.68888 cumulative IPC: 0.63704 (Simulation time: 0 hr 13 min 43 sec) 
Heartbeat CPU  0 instructions:  379000000 cycles:  488437138 heartbeat IPC: 0.70078 cumulative IPC: 0.63724 (Simulation time: 0 hr 13 min 46 sec) 
Heartbeat CPU  0 instructions:  380000000 cycles:  489904910 heartbeat IPC: 0.68130 cumulative IPC: 0.63739 (Simulation time: 0 hr 13 min 48 sec) 
Heartbeat CPU  0 instructions:  381000002 cycles:  491359323 heartbeat IPC: 0.68756 cumulative IPC: 0.63756 (Simulation time: 0 hr 13 min 50 sec) 
Heartbeat CPU  0 instructions:  382000000 cycles:  492812000 heartbeat IPC: 0.68838 cumulative IPC: 0.63772 (Simulation time: 0 hr 13 min 53 sec) 
Heartbeat CPU  0 instructions:  383000000 cycles:  494219430 heartbeat IPC: 0.71051 cumulative IPC: 0.63796 (Simulation time: 0 hr 13 min 55 sec) 
Heartbeat CPU  0 instructions:  384000000 cycles:  495578498 heartbeat IPC: 0.73580 cumulative IPC: 0.63825 (Simulation time: 0 hr 13 min 57 sec) 
Heartbeat CPU  0 instructions:  385000001 cycles:  496918219 heartbeat IPC: 0.74642 cumulative IPC: 0.63858 (Simulation time: 0 hr 13 min 59 sec) 
Heartbeat CPU  0 instructions:  386000002 cycles:  498258199 heartbeat IPC: 0.74628 cumulative IPC: 0.63890 (Simulation time: 0 hr 14 min 2 sec) 
Heartbeat CPU  0 instructions:  387000000 cycles:  499673072 heartbeat IPC: 0.70678 cumulative IPC: 0.63911 (Simulation time: 0 hr 14 min 4 sec) 
Heartbeat CPU  0 instructions:  388000000 cycles:  501140303 heartbeat IPC: 0.68156 cumulative IPC: 0.63925 (Simulation time: 0 hr 14 min 6 sec) 
Heartbeat CPU  0 instructions:  389000003 cycles:  502566199 heartbeat IPC: 0.70132 cumulative IPC: 0.63945 (Simulation time: 0 hr 14 min 8 sec) 
Heartbeat CPU  0 instructions:  390000001 cycles:  504025527 heartbeat IPC: 0.68525 cumulative IPC: 0.63960 (Simulation time: 0 hr 14 min 11 sec) 
Heartbeat CPU  0 instructions:  391000002 cycles:  505476397 heartbeat IPC: 0.68924 cumulative IPC: 0.63975 (Simulation time: 0 hr 14 min 13 sec) 
Heartbeat CPU  0 instructions:  392000000 cycles:  506920520 heartbeat IPC: 0.69246 cumulative IPC: 0.63992 (Simulation time: 0 hr 14 min 15 sec) 
Heartbeat CPU  0 instructions:  393000003 cycles:  508363680 heartbeat IPC: 0.69293 cumulative IPC: 0.64009 (Simulation time: 0 hr 14 min 18 sec) 
Heartbeat CPU  0 instructions:  394000003 cycles:  509727683 heartbeat IPC: 0.73314 cumulative IPC: 0.64037 (Simulation time: 0 hr 14 min 20 sec) 
Heartbeat CPU  0 instructions:  395000003 cycles:  511118422 heartbeat IPC: 0.71904 cumulative IPC: 0.64060 (Simulation time: 0 hr 14 min 22 sec) 
Heartbeat CPU  0 instructions:  396000000 cycles:  512472956 heartbeat IPC: 0.73826 cumulative IPC: 0.64089 (Simulation time: 0 hr 14 min 24 sec) 
Heartbeat CPU  0 instructions:  397000001 cycles:  513825473 heartbeat IPC: 0.73936 cumulative IPC: 0.64118 (Simulation time: 0 hr 14 min 27 sec) 
Heartbeat CPU  0 instructions:  398000001 cycles:  515273913 heartbeat IPC: 0.69040 cumulative IPC: 0.64133 (Simulation time: 0 hr 14 min 29 sec) 
Heartbeat CPU  0 instructions:  399000002 cycles:  516992203 heartbeat IPC: 0.58197 cumulative IPC: 0.64111 (Simulation time: 0 hr 14 min 31 sec) 
Heartbeat CPU  0 instructions:  400000000 cycles:  518710922 heartbeat IPC: 0.58183 cumulative IPC: 0.64089 (Simulation time: 0 hr 14 min 34 sec) 
Heartbeat CPU  0 instructions:  401000001 cycles:  520432736 heartbeat IPC: 0.58078 cumulative IPC: 0.64067 (Simulation time: 0 hr 14 min 36 sec) 
Heartbeat CPU  0 instructions:  402000003 cycles:  522149419 heartbeat IPC: 0.58252 cumulative IPC: 0.64046 (Simulation time: 0 hr 14 min 39 sec) 
Heartbeat CPU  0 instructions:  403000000 cycles:  523857427 heartbeat IPC: 0.58548 cumulative IPC: 0.64026 (Simulation time: 0 hr 14 min 41 sec) 
Heartbeat CPU  0 instructions:  404000000 cycles:  525536501 heartbeat IPC: 0.59557 cumulative IPC: 0.64011 (Simulation time: 0 hr 14 min 44 sec) 
Heartbeat CPU  0 instructions:  405000003 cycles:  527225920 heartbeat IPC: 0.59192 cumulative IPC: 0.63993 (Simulation time: 0 hr 14 min 46 sec) 
Heartbeat CPU  0 instructions:  406000003 cycles:  528901429 heartbeat IPC: 0.59683 cumulative IPC: 0.63978 (Simulation time: 0 hr 14 min 48 sec) 
Heartbeat CPU  0 instructions:  407000000 cycles:  530578002 heartbeat IPC: 0.59645 cumulative IPC: 0.63963 (Simulation time: 0 hr 14 min 51 sec) 
Heartbeat CPU  0 instructions:  408000000 cycles:  532247603 heartbeat IPC: 0.59895 cumulative IPC: 0.63949 (Simulation time: 0 hr 14 min 53 sec) 
Heartbeat CPU  0 instructions:  409000002 cycles:  533914055 heartbeat IPC: 0.60008 cumulative IPC: 0.63936 (Simulation time: 0 hr 14 min 56 sec) 
Heartbeat CPU  0 instructions:  410000002 cycles:  535566946 heartbeat IPC: 0.60500 cumulative IPC: 0.63924 (Simulation time: 0 hr 14 min 58 sec) 
Heartbeat CPU  0 instructions:  411000000 cycles:  537235061 heartbeat IPC: 0.59948 cumulative IPC: 0.63910 (Simulation time: 0 hr 15 min 0 sec) 
Heartbeat CPU  0 instructions:  412000000 cycles:  538905422 heartbeat IPC: 0.59867 cumulative IPC: 0.63896 (Simulation time: 0 hr 15 min 3 sec) 
Heartbeat CPU  0 instructions:  413000001 cycles:  540561911 heartbeat IPC: 0.60369 cumulative IPC: 0.63884 (Simulation time: 0 hr 15 min 5 sec) 
Heartbeat CPU  0 instructions:  414000000 cycles:  542227641 heartbeat IPC: 0.60034 cumulative IPC: 0.63871 (Simulation time: 0 hr 15 min 8 sec) 
Heartbeat CPU  0 instructions:  415000002 cycles:  543899528 heartbeat IPC: 0.59813 cumulative IPC: 0.63858 (Simulation time: 0 hr 15 min 10 sec) 
Heartbeat CPU  0 instructions:  416000000 cycles:  545591413 heartbeat IPC: 0.59106 cumulative IPC: 0.63841 (Simulation time: 0 hr 15 min 12 sec) 
Heartbeat CPU  0 instructions:  417000001 cycles:  547274755 heartbeat IPC: 0.59406 cumulative IPC: 0.63826 (Simulation time: 0 hr 15 min 15 sec) 
Heartbeat CPU  0 instructions:  418000002 cycles:  548970837 heartbeat IPC: 0.58959 cumulative IPC: 0.63810 (Simulation time: 0 hr 15 min 17 sec) 
Heartbeat CPU  0 instructions:  419000003 cycles:  550658433 heartbeat IPC: 0.59256 cumulative IPC: 0.63794 (Simulation time: 0 hr 15 min 20 sec) 
Heartbeat CPU  0 instructions:  420000000 cycles:  552344581 heartbeat IPC: 0.59307 cumulative IPC: 0.63779 (Simulation time: 0 hr 15 min 22 sec) 
Heartbeat CPU  0 instructions:  421000002 cycles:  554037559 heartbeat IPC: 0.59068 cumulative IPC: 0.63763 (Simulation time: 0 hr 15 min 24 sec) 
Heartbeat CPU  0 instructions:  422000000 cycles:  555721398 heartbeat IPC: 0.59388 cumulative IPC: 0.63749 (Simulation time: 0 hr 15 min 27 sec) 
Heartbeat CPU  0 instructions:  423000003 cycles:  557407489 heartbeat IPC: 0.59309 cumulative IPC: 0.63734 (Simulation time: 0 hr 15 min 29 sec) 
Heartbeat CPU  0 instructions:  424000000 cycles:  559095021 heartbeat IPC: 0.59258 cumulative IPC: 0.63719 (Simulation time: 0 hr 15 min 32 sec) 
Heartbeat CPU  0 instructions:  425000000 cycles:  560794605 heartbeat IPC: 0.58838 cumulative IPC: 0.63703 (Simulation time: 0 hr 15 min 34 sec) 
Heartbeat CPU  0 instructions:  426000000 cycles:  562478168 heartbeat IPC: 0.59398 cumulative IPC: 0.63689 (Simulation time: 0 hr 15 min 36 sec) 
Heartbeat CPU  0 instructions:  427000003 cycles:  564168851 heartbeat IPC: 0.59148 cumulative IPC: 0.63674 (Simulation time: 0 hr 15 min 39 sec) 
Heartbeat CPU  0 instructions:  428000000 cycles:  565860807 heartbeat IPC: 0.59103 cumulative IPC: 0.63659 (Simulation time: 0 hr 15 min 41 sec) 
Heartbeat CPU  0 instructions:  429000000 cycles:  567551153 heartbeat IPC: 0.59159 cumulative IPC: 0.63644 (Simulation time: 0 hr 15 min 44 sec) 
Heartbeat CPU  0 instructions:  430000003 cycles:  569249535 heartbeat IPC: 0.58880 cumulative IPC: 0.63629 (Simulation time: 0 hr 15 min 46 sec) 
Heartbeat CPU  0 instructions:  431000003 cycles:  570931655 heartbeat IPC: 0.59449 cumulative IPC: 0.63615 (Simulation time: 0 hr 15 min 49 sec) 
Heartbeat CPU  0 instructions:  432000000 cycles:  572631120 heartbeat IPC: 0.58842 cumulative IPC: 0.63600 (Simulation time: 0 hr 15 min 51 sec) 
Heartbeat CPU  0 instructions:  433000000 cycles:  574320093 heartbeat IPC: 0.59208 cumulative IPC: 0.63585 (Simulation time: 0 hr 15 min 53 sec) 
Heartbeat CPU  0 instructions:  434000003 cycles:  576011531 heartbeat IPC: 0.59121 cumulative IPC: 0.63571 (Simulation time: 0 hr 15 min 56 sec) 
Heartbeat CPU  0 instructions:  435000003 cycles:  577697852 heartbeat IPC: 0.59301 cumulative IPC: 0.63557 (Simulation time: 0 hr 15 min 58 sec) 
Heartbeat CPU  0 instructions:  436000000 cycles:  579391671 heartbeat IPC: 0.59038 cumulative IPC: 0.63543 (Simulation time: 0 hr 16 min 1 sec) 
Heartbeat CPU  0 instructions:  437000000 cycles:  581080046 heartbeat IPC: 0.59229 cumulative IPC: 0.63529 (Simulation time: 0 hr 16 min 3 sec) 
Heartbeat CPU  0 instructions:  438000001 cycles:  582778177 heartbeat IPC: 0.58888 cumulative IPC: 0.63514 (Simulation time: 0 hr 16 min 6 sec) 
Heartbeat CPU  0 instructions:  439000002 cycles:  584467590 heartbeat IPC: 0.59192 cumulative IPC: 0.63501 (Simulation time: 0 hr 16 min 8 sec) 
Heartbeat CPU  0 instructions:  440000000 cycles:  586159196 heartbeat IPC: 0.59115 cumulative IPC: 0.63487 (Simulation time: 0 hr 16 min 10 sec) 
Heartbeat CPU  0 instructions:  441000001 cycles:  587855033 heartbeat IPC: 0.58968 cumulative IPC: 0.63473 (Simulation time: 0 hr 16 min 13 sec) 
Heartbeat CPU  0 instructions:  442000001 cycles:  589549148 heartbeat IPC: 0.59028 cumulative IPC: 0.63459 (Simulation time: 0 hr 16 min 15 sec) 
Heartbeat CPU  0 instructions:  443000003 cycles:  591241598 heartbeat IPC: 0.59086 cumulative IPC: 0.63445 (Simulation time: 0 hr 16 min 18 sec) 
Heartbeat CPU  0 instructions:  444000000 cycles:  592933648 heartbeat IPC: 0.59100 cumulative IPC: 0.63431 (Simulation time: 0 hr 16 min 20 sec) 
Heartbeat CPU  0 instructions:  445000001 cycles:  594628478 heartbeat IPC: 0.59003 cumulative IPC: 0.63417 (Simulation time: 0 hr 16 min 23 sec) 
Heartbeat CPU  0 instructions:  446000001 cycles:  596315712 heartbeat IPC: 0.59269 cumulative IPC: 0.63405 (Simulation time: 0 hr 16 min 25 sec) 
Heartbeat CPU  0 instructions:  447000000 cycles:  598004162 heartbeat IPC: 0.59226 cumulative IPC: 0.63392 (Simulation time: 0 hr 16 min 27 sec) 
Heartbeat CPU  0 instructions:  448000000 cycles:  599700631 heartbeat IPC: 0.58946 cumulative IPC: 0.63378 (Simulation time: 0 hr 16 min 30 sec) 
Heartbeat CPU  0 instructions:  449000003 cycles:  601385231 heartbeat IPC: 0.59361 cumulative IPC: 0.63366 (Simulation time: 0 hr 16 min 32 sec) 
Heartbeat CPU  0 instructions:  450000002 cycles:  603084915 heartbeat IPC: 0.58834 cumulative IPC: 0.63352 (Simulation time: 0 hr 16 min 35 sec) 
Heartbeat CPU  0 instructions:  451000000 cycles:  604772144 heartbeat IPC: 0.59269 cumulative IPC: 0.63339 (Simulation time: 0 hr 16 min 37 sec) 
Heartbeat CPU  0 instructions:  452000000 cycles:  606471392 heartbeat IPC: 0.58850 cumulative IPC: 0.63326 (Simulation time: 0 hr 16 min 39 sec) 
Heartbeat CPU  0 instructions:  453000003 cycles:  608154375 heartbeat IPC: 0.59418 cumulative IPC: 0.63314 (Simulation time: 0 hr 16 min 42 sec) 
Heartbeat CPU  0 instructions:  454000000 cycles:  609846179 heartbeat IPC: 0.59108 cumulative IPC: 0.63301 (Simulation time: 0 hr 16 min 44 sec) 
Heartbeat CPU  0 instructions:  455000002 cycles:  611539837 heartbeat IPC: 0.59044 cumulative IPC: 0.63288 (Simulation time: 0 hr 16 min 47 sec) 
Heartbeat CPU  0 instructions:  456000000 cycles:  613231821 heartbeat IPC: 0.59102 cumulative IPC: 0.63276 (Simulation time: 0 hr 16 min 49 sec) 
Heartbeat CPU  0 instructions:  457000000 cycles:  614922850 heartbeat IPC: 0.59136 cumulative IPC: 0.63263 (Simulation time: 0 hr 16 min 52 sec) 
Heartbeat CPU  0 instructions:  458000002 cycles:  616619183 heartbeat IPC: 0.58951 cumulative IPC: 0.63250 (Simulation time: 0 hr 16 min 54 sec) 
Heartbeat CPU  0 instructions:  459000003 cycles:  618314119 heartbeat IPC: 0.58999 cumulative IPC: 0.63238 (Simulation time: 0 hr 16 min 57 sec) 
Heartbeat CPU  0 instructions:  460000000 cycles:  620244646 heartbeat IPC: 0.51799 cumulative IPC: 0.63199 (Simulation time: 0 hr 16 min 59 sec) 
Heartbeat CPU  0 instructions:  461000000 cycles:  622760231 heartbeat IPC: 0.39752 cumulative IPC: 0.63096 (Simulation time: 0 hr 17 min 2 sec) 
Heartbeat CPU  0 instructions:  462000000 cycles:  625276964 heartbeat IPC: 0.39734 cumulative IPC: 0.62994 (Simulation time: 0 hr 17 min 4 sec) 
Heartbeat CPU  0 instructions:  463000001 cycles:  627804063 heartbeat IPC: 0.39571 cumulative IPC: 0.62891 (Simulation time: 0 hr 17 min 7 sec) 
Heartbeat CPU  0 instructions:  464000000 cycles:  630334085 heartbeat IPC: 0.39525 cumulative IPC: 0.62789 (Simulation time: 0 hr 17 min 9 sec) 
Heartbeat CPU  0 instructions:  465000002 cycles:  632868479 heartbeat IPC: 0.39457 cumulative IPC: 0.62687 (Simulation time: 0 hr 17 min 12 sec) 
Heartbeat CPU  0 instructions:  466000000 cycles:  635407489 heartbeat IPC: 0.39385 cumulative IPC: 0.62586 (Simulation time: 0 hr 17 min 15 sec) 
Heartbeat CPU  0 instructions:  467000001 cycles:  637939309 heartbeat IPC: 0.39497 cumulative IPC: 0.62487 (Simulation time: 0 hr 17 min 17 sec) 
Heartbeat CPU  0 instructions:  468000000 cycles:  640471787 heartbeat IPC: 0.39487 cumulative IPC: 0.62388 (Simulation time: 0 hr 17 min 20 sec) 
Heartbeat CPU  0 instructions:  469000003 cycles:  643004415 heartbeat IPC: 0.39485 cumulative IPC: 0.62290 (Simulation time: 0 hr 17 min 22 sec) 
Heartbeat CPU  0 instructions:  470000001 cycles:  645543153 heartbeat IPC: 0.39390 cumulative IPC: 0.62192 (Simulation time: 0 hr 17 min 25 sec) 
Heartbeat CPU  0 instructions:  471000003 cycles:  648070366 heartbeat IPC: 0.39569 cumulative IPC: 0.62097 (Simulation time: 0 hr 17 min 28 sec) 
Heartbeat CPU  0 instructions:  472000000 cycles:  650528840 heartbeat IPC: 0.40676 cumulative IPC: 0.62009 (Simulation time: 0 hr 17 min 30 sec) 
Heartbeat CPU  0 instructions:  473000002 cycles:  652984612 heartbeat IPC: 0.40720 cumulative IPC: 0.61922 (Simulation time: 0 hr 17 min 33 sec) 
Heartbeat CPU  0 instructions:  474000001 cycles:  655446482 heartbeat IPC: 0.40619 cumulative IPC: 0.61835 (Simulation time: 0 hr 17 min 35 sec) 
Heartbeat CPU  0 instructions:  475000002 cycles:  657902742 heartbeat IPC: 0.40712 cumulative IPC: 0.61750 (Simulation time: 0 hr 17 min 38 sec) 
Heartbeat CPU  0 instructions:  476000000 cycles:  660355628 heartbeat IPC: 0.40768 cumulative IPC: 0.61666 (Simulation time: 0 hr 17 min 40 sec) 
Heartbeat CPU  0 instructions:  477000002 cycles:  662821000 heartbeat IPC: 0.40562 cumulative IPC: 0.61581 (Simulation time: 0 hr 17 min 43 sec) 
Heartbeat CPU  0 instructions:  478000000 cycles:  665338922 heartbeat IPC: 0.39715 cumulative IPC: 0.61491 (Simulation time: 0 hr 17 min 46 sec) 
Heartbeat CPU  0 instructions:  479000002 cycles:  667916484 heartbeat IPC: 0.38796 cumulative IPC: 0.61396 (Simulation time: 0 hr 17 min 48 sec) 
Heartbeat CPU  0 instructions:  480000000 cycles:  670461671 heartbeat IPC: 0.39290 cumulative IPC: 0.61305 (Simulation time: 0 hr 17 min 51 sec) 
Heartbeat CPU  0 instructions:  481000003 cycles:  672969886 heartbeat IPC: 0.39869 cumulative IPC: 0.61219 (Simulation time: 0 hr 17 min 53 sec) 
Heartbeat CPU  0 instructions:  482000003 cycles:  675459004 heartbeat IPC: 0.40175 cumulative IPC: 0.61135 (Simulation time: 0 hr 17 min 56 sec) 
Heartbeat CPU  0 instructions:  483000003 cycles:  677968448 heartbeat IPC: 0.39849 cumulative IPC: 0.61050 (Simulation time: 0 hr 17 min 59 sec) 
Heartbeat CPU  0 instructions:  484000000 cycles:  680457901 heartbeat IPC: 0.40169 cumulative IPC: 0.60968 (Simulation time: 0 hr 18 min 1 sec) 
Heartbeat CPU  0 instructions:  485000002 cycles:  682928755 heartbeat IPC: 0.40472 cumulative IPC: 0.60887 (Simulation time: 0 hr 18 min 4 sec) 
Heartbeat CPU  0 instructions:  486000000 cycles:  685432291 heartbeat IPC: 0.39943 cumulative IPC: 0.60805 (Simulation time: 0 hr 18 min 6 sec) 
Heartbeat CPU  0 instructions:  487000000 cycles:  687625746 heartbeat IPC: 0.45590 cumulative IPC: 0.60752 (Simulation time: 0 hr 18 min 9 sec) 
Heartbeat CPU  0 instructions:  488000000 cycles:  689853487 heartbeat IPC: 0.44889 cumulative IPC: 0.60697 (Simulation time: 0 hr 18 min 12 sec) 
Heartbeat CPU  0 instructions:  489000000 cycles:  692095218 heartbeat IPC: 0.44608 cumulative IPC: 0.60641 (Simulation time: 0 hr 18 min 15 sec) 
Heartbeat CPU  0 instructions:  490000003 cycles:  694127734 heartbeat IPC: 0.49200 cumulative IPC: 0.60605 (Simulation time: 0 hr 18 min 18 sec) 
Heartbeat CPU  0 instructions:  491000003 cycles:  696224447 heartbeat IPC: 0.47694 cumulative IPC: 0.60563 (Simulation time: 0 hr 18 min 21 sec) 
Heartbeat CPU  0 instructions:  492000000 cycles:  698222180 heartbeat IPC: 0.50057 cumulative IPC: 0.60530 (Simulation time: 0 hr 18 min 24 sec) 
Heartbeat CPU  0 instructions:  493000001 cycles:  700290440 heartbeat IPC: 0.48350 cumulative IPC: 0.60492 (Simulation time: 0 hr 18 min 26 sec) 
Heartbeat CPU  0 instructions:  494000000 cycles:  702289800 heartbeat IPC: 0.50016 cumulative IPC: 0.60460 (Simulation time: 0 hr 18 min 29 sec) 
Heartbeat CPU  0 instructions:  495000000 cycles:  704342040 heartbeat IPC: 0.48727 cumulative IPC: 0.60423 (Simulation time: 0 hr 18 min 32 sec) 
Heartbeat CPU  0 instructions:  496000000 cycles:  706347489 heartbeat IPC: 0.49864 cumulative IPC: 0.60390 (Simulation time: 0 hr 18 min 35 sec) 
Heartbeat CPU  0 instructions:  497000002 cycles:  708360893 heartbeat IPC: 0.49667 cumulative IPC: 0.60358 (Simulation time: 0 hr 18 min 37 sec) 
Heartbeat CPU  0 instructions:  498000001 cycles:  710404528 heartbeat IPC: 0.48932 cumulative IPC: 0.60322 (Simulation time: 0 hr 18 min 40 sec) 
Heartbeat CPU  0 instructions:  499000000 cycles:  712433027 heartbeat IPC: 0.49297 cumulative IPC: 0.60288 (Simulation time: 0 hr 18 min 43 sec) 
Heartbeat CPU  0 instructions:  500000000 cycles:  714481483 heartbeat IPC: 0.48817 cumulative IPC: 0.60253 (Simulation time: 0 hr 18 min 46 sec) 
Heartbeat CPU  0 instructions:  501000003 cycles:  716498612 heartbeat IPC: 0.49576 cumulative IPC: 0.60221 (Simulation time: 0 hr 18 min 49 sec) 
Heartbeat CPU  0 instructions:  502000000 cycles:  718564445 heartbeat IPC: 0.48406 cumulative IPC: 0.60184 (Simulation time: 0 hr 18 min 51 sec) 
Heartbeat CPU  0 instructions:  503000000 cycles:  720539719 heartbeat IPC: 0.50626 cumulative IPC: 0.60156 (Simulation time: 0 hr 18 min 54 sec) 
Heartbeat CPU  0 instructions:  504000000 cycles:  722626551 heartbeat IPC: 0.47920 cumulative IPC: 0.60118 (Simulation time: 0 hr 18 min 57 sec) 
Heartbeat CPU  0 instructions:  505000000 cycles:  724586863 heartbeat IPC: 0.51012 cumulative IPC: 0.60091 (Simulation time: 0 hr 19 min 0 sec) 
Heartbeat CPU  0 instructions:  506000003 cycles:  726699344 heartbeat IPC: 0.47338 cumulative IPC: 0.60052 (Simulation time: 0 hr 19 min 2 sec) 
Heartbeat CPU  0 instructions:  507000002 cycles:  728657429 heartbeat IPC: 0.51070 cumulative IPC: 0.60026 (Simulation time: 0 hr 19 min 5 sec) 
Heartbeat CPU  0 instructions:  508000000 cycles:  730778343 heartbeat IPC: 0.47149 cumulative IPC: 0.59986 (Simulation time: 0 hr 19 min 8 sec) 
Heartbeat CPU  0 instructions:  509000001 cycles:  732759056 heartbeat IPC: 0.50487 cumulative IPC: 0.59958 (Simulation time: 0 hr 19 min 11 sec) 
Heartbeat CPU  0 instructions:  510000000 cycles:  734876697 heartbeat IPC: 0.47222 cumulative IPC: 0.59919 (Simulation time: 0 hr 19 min 13 sec) 
Heartbeat CPU  0 instructions:  511000001 cycles:  736820068 heartbeat IPC: 0.51457 cumulative IPC: 0.59895 (Simulation time: 0 hr 19 min 16 sec) 
Heartbeat CPU  0 instructions:  512000000 cycles:  738960026 heartbeat IPC: 0.46730 cumulative IPC: 0.59854 (Simulation time: 0 hr 19 min 19 sec) 
Heartbeat CPU  0 instructions:  513000000 cycles:  740963971 heartbeat IPC: 0.49902 cumulative IPC: 0.59825 (Simulation time: 0 hr 19 min 22 sec) 
Heartbeat CPU  0 instructions:  514000000 cycles:  743125401 heartbeat IPC: 0.46266 cumulative IPC: 0.59782 (Simulation time: 0 hr 19 min 25 sec) 
Heartbeat CPU  0 instructions:  515000003 cycles:  745133994 heartbeat IPC: 0.49786 cumulative IPC: 0.59754 (Simulation time: 0 hr 19 min 27 sec) 
Heartbeat CPU  0 instructions:  516000000 cycles:  747244652 heartbeat IPC: 0.47378 cumulative IPC: 0.59716 (Simulation time: 0 hr 19 min 30 sec) 
Heartbeat CPU  0 instructions:  517000001 cycles:  749244946 heartbeat IPC: 0.49993 cumulative IPC: 0.59688 (Simulation time: 0 hr 19 min 33 sec) 
Heartbeat CPU  0 instructions:  518000001 cycles:  751328281 heartbeat IPC: 0.48000 cumulative IPC: 0.59653 (Simulation time: 0 hr 19 min 36 sec) 
Heartbeat CPU  0 instructions:  519000000 cycles:  753380827 heartbeat IPC: 0.48720 cumulative IPC: 0.59622 (Simulation time: 0 hr 19 min 39 sec) 
Heartbeat CPU  0 instructions:  520000000 cycles:  755468730 heartbeat IPC: 0.47895 cumulative IPC: 0.59587 (Simulation time: 0 hr 19 min 41 sec) 
Heartbeat CPU  0 instructions:  521000002 cycles:  757615104 heartbeat IPC: 0.46590 cumulative IPC: 0.59547 (Simulation time: 0 hr 19 min 44 sec) 
Heartbeat CPU  0 instructions:  522000002 cycles:  759783966 heartbeat IPC: 0.46107 cumulative IPC: 0.59506 (Simulation time: 0 hr 19 min 47 sec) 
Heartbeat CPU  0 instructions:  523000001 cycles:  761947651 heartbeat IPC: 0.46217 cumulative IPC: 0.59466 (Simulation time: 0 hr 19 min 50 sec) 
Heartbeat CPU  0 instructions:  524000000 cycles:  763913391 heartbeat IPC: 0.50871 cumulative IPC: 0.59442 (Simulation time: 0 hr 19 min 53 sec) 
Heartbeat CPU  0 instructions:  525000000 cycles:  765608857 heartbeat IPC: 0.58981 cumulative IPC: 0.59441 (Simulation time: 0 hr 19 min 55 sec) 
Heartbeat CPU  0 instructions:  526000001 cycles:  767301845 heartbeat IPC: 0.59067 cumulative IPC: 0.59440 (Simulation time: 0 hr 19 min 58 sec) 
Heartbeat CPU  0 instructions:  527000001 cycles:  769004455 heartbeat IPC: 0.58733 cumulative IPC: 0.59438 (Simulation time: 0 hr 20 min 0 sec) 
Heartbeat CPU  0 instructions:  528000000 cycles:  770703849 heartbeat IPC: 0.58844 cumulative IPC: 0.59437 (Simulation time: 0 hr 20 min 3 sec) 
Heartbeat CPU  0 instructions:  529000003 cycles:  772376336 heartbeat IPC: 0.59791 cumulative IPC: 0.59438 (Simulation time: 0 hr 20 min 5 sec) 
Heartbeat CPU  0 instructions:  530000002 cycles:  773940213 heartbeat IPC: 0.63944 cumulative IPC: 0.59448 (Simulation time: 0 hr 20 min 7 sec) 
Heartbeat CPU  0 instructions:  531000001 cycles:  775459324 heartbeat IPC: 0.65828 cumulative IPC: 0.59461 (Simulation time: 0 hr 20 min 10 sec) 
Heartbeat CPU  0 instructions:  532000000 cycles:  777002209 heartbeat IPC: 0.64814 cumulative IPC: 0.59472 (Simulation time: 0 hr 20 min 12 sec) 
Heartbeat CPU  0 instructions:  533000003 cycles:  778534791 heartbeat IPC: 0.65250 cumulative IPC: 0.59485 (Simulation time: 0 hr 20 min 14 sec) 
Heartbeat CPU  0 instructions:  534000001 cycles:  780080364 heartbeat IPC: 0.64701 cumulative IPC: 0.59496 (Simulation time: 0 hr 20 min 16 sec) 
Heartbeat CPU  0 instructions:  535000000 cycles:  781647054 heartbeat IPC: 0.63829 cumulative IPC: 0.59505 (Simulation time: 0 hr 20 min 19 sec) 
Heartbeat CPU  0 instructions:  536000000 cycles:  783177375 heartbeat IPC: 0.65346 cumulative IPC: 0.59517 (Simulation time: 0 hr 20 min 21 sec) 
Heartbeat CPU  0 instructions:  537000003 cycles:  784625421 heartbeat IPC: 0.69059 cumulative IPC: 0.59536 (Simulation time: 0 hr 20 min 23 sec) 
Heartbeat CPU  0 instructions:  538000003 cycles:  785994004 heartbeat IPC: 0.73068 cumulative IPC: 0.59561 (Simulation time: 0 hr 20 min 26 sec) 
Heartbeat CPU  0 instructions:  539000001 cycles:  787302760 heartbeat IPC: 0.76408 cumulative IPC: 0.59591 (Simulation time: 0 hr 20 min 28 sec) 
Heartbeat CPU  0 instructions:  540000000 cycles:  788706980 heartbeat IPC: 0.71214 cumulative IPC: 0.59613 (Simulation time: 0 hr 20 min 30 sec) 
Heartbeat CPU  0 instructions:  541000003 cycles:  790114435 heartbeat IPC: 0.71050 cumulative IPC: 0.59635 (Simulation time: 0 hr 20 min 32 sec) 
Heartbeat CPU  0 instructions:  542000000 cycles:  791492788 heartbeat IPC: 0.72550 cumulative IPC: 0.59659 (Simulation time: 0 hr 20 min 35 sec) 
Heartbeat CPU  0 instructions:  543000000 cycles:  792876436 heartbeat IPC: 0.72273 cumulative IPC: 0.59682 (Simulation time: 0 hr 20 min 37 sec) 
Heartbeat CPU  0 instructions:  544000000 cycles:  794309078 heartbeat IPC: 0.69801 cumulative IPC: 0.59702 (Simulation time: 0 hr 20 min 39 sec) 
Heartbeat CPU  0 instructions:  545000003 cycles:  795940640 heartbeat IPC: 0.61291 cumulative IPC: 0.59705 (Simulation time: 0 hr 20 min 41 sec) 
Heartbeat CPU  0 instructions:  546000002 cycles:  797516708 heartbeat IPC: 0.63449 cumulative IPC: 0.59713 (Simulation time: 0 hr 20 min 44 sec) 
Heartbeat CPU  0 instructions:  547000002 cycles:  799035500 heartbeat IPC: 0.65842 cumulative IPC: 0.59726 (Simulation time: 0 hr 20 min 46 sec) 
Heartbeat CPU  0 instructions:  548000000 cycles:  800466259 heartbeat IPC: 0.69893 cumulative IPC: 0.59745 (Simulation time: 0 hr 20 min 48 sec) 
Heartbeat CPU  0 instructions:  549000003 cycles:  801899586 heartbeat IPC: 0.69768 cumulative IPC: 0.59764 (Simulation time: 0 hr 20 min 51 sec) 
Heartbeat CPU  0 instructions:  550000000 cycles:  803327873 heartbeat IPC: 0.70014 cumulative IPC: 0.59784 (Simulation time: 0 hr 20 min 53 sec) 
Heartbeat CPU  0 instructions:  551000000 cycles:  804745970 heartbeat IPC: 0.70517 cumulative IPC: 0.59804 (Simulation time: 0 hr 20 min 55 sec) 
Heartbeat CPU  0 instructions:  552000000 cycles:  806122120 heartbeat IPC: 0.72666 cumulative IPC: 0.59827 (Simulation time: 0 hr 20 min 58 sec) 
Heartbeat CPU  0 instructions:  553000000 cycles:  807548023 heartbeat IPC: 0.70131 cumulative IPC: 0.59847 (Simulation time: 0 hr 21 min 0 sec) 
Heartbeat CPU  0 instructions:  554000000 cycles:  809007358 heartbeat IPC: 0.68524 cumulative IPC: 0.59863 (Simulation time: 0 hr 21 min 2 sec) 
Heartbeat CPU  0 instructions:  555000001 cycles:  810712156 heartbeat IPC: 0.58658 cumulative IPC: 0.59861 (Simulation time: 0 hr 21 min 4 sec) 
Heartbeat CPU  0 instructions:  556000000 cycles:  812329500 heartbeat IPC: 0.61830 cumulative IPC: 0.59865 (Simulation time: 0 hr 21 min 7 sec) 
Heartbeat CPU  0 instructions:  557000000 cycles:  813885803 heartbeat IPC: 0.64255 cumulative IPC: 0.59874 (Simulation time: 0 hr 21 min 9 sec) 
Heartbeat CPU  0 instructions:  558000000 cycles:  815394669 heartbeat IPC: 0.66275 cumulative IPC: 0.59886 (Simulation time: 0 hr 21 min 11 sec) 
Heartbeat CPU  0 instructions:  559000000 cycles:  816875999 heartbeat IPC: 0.67507 cumulative IPC: 0.59901 (Simulation time: 0 hr 21 min 14 sec) 
Heartbeat CPU  0 instructions:  560000000 cycles:  818364169 heartbeat IPC: 0.67197 cumulative IPC: 0.59915 (Simulation time: 0 hr 21 min 16 sec) 
Heartbeat CPU  0 instructions:  561000001 cycles:  819802647 heartbeat IPC: 0.69518 cumulative IPC: 0.59933 (Simulation time: 0 hr 21 min 18 sec) 
Heartbeat CPU  0 instructions:  562000003 cycles:  821217635 heartbeat IPC: 0.70672 cumulative IPC: 0.59953 (Simulation time: 0 hr 21 min 21 sec) 
Heartbeat CPU  0 instructions:  563000000 cycles:  822620042 heartbeat IPC: 0.71306 cumulative IPC: 0.59974 (Simulation time: 0 hr 21 min 23 sec) 
Heartbeat CPU  0 instructions:  564000000 cycles:  823993608 heartbeat IPC: 0.72803 cumulative IPC: 0.59996 (Simulation time: 0 hr 21 min 25 sec) 
Heartbeat CPU  0 instructions:  565000003 cycles:  825672082 heartbeat IPC: 0.59578 cumulative IPC: 0.59996 (Simulation time: 0 hr 21 min 27 sec) 
Heartbeat CPU  0 instructions:  566000003 cycles:  827370067 heartbeat IPC: 0.58893 cumulative IPC: 0.59993 (Simulation time: 0 hr 21 min 30 sec) 
Heartbeat CPU  0 instructions:  567000001 cycles:  828958098 heartbeat IPC: 0.62971 cumulative IPC: 0.59999 (Simulation time: 0 hr 21 min 32 sec) 
Heartbeat CPU  0 instructions:  568000000 cycles:  830495931 heartbeat IPC: 0.65027 cumulative IPC: 0.60009 (Simulation time: 0 hr 21 min 34 sec) 
Heartbeat CPU  0 instructions:  569000002 cycles:  832016218 heartbeat IPC: 0.65777 cumulative IPC: 0.60020 (Simulation time: 0 hr 21 min 37 sec) 
Heartbeat CPU  0 instructions:  570000001 cycles:  833540705 heartbeat IPC: 0.65596 cumulative IPC: 0.60031 (Simulation time: 0 hr 21 min 39 sec) 
Heartbeat CPU  0 instructions:  571000002 cycles:  835050877 heartbeat IPC: 0.66218 cumulative IPC: 0.60043 (Simulation time: 0 hr 21 min 41 sec) 
Heartbeat CPU  0 instructions:  572000000 cycles:  836465419 heartbeat IPC: 0.70694 cumulative IPC: 0.60062 (Simulation time: 0 hr 21 min 44 sec) 
Heartbeat CPU  0 instructions:  573000001 cycles:  837859690 heartbeat IPC: 0.71722 cumulative IPC: 0.60083 (Simulation time: 0 hr 21 min 46 sec) 
Heartbeat CPU  0 instructions:  574000003 cycles:  839252117 heartbeat IPC: 0.71817 cumulative IPC: 0.60104 (Simulation time: 0 hr 21 min 48 sec) 
Heartbeat CPU  0 instructions:  575000000 cycles:  840753455 heartbeat IPC: 0.66607 cumulative IPC: 0.60116 (Simulation time: 0 hr 21 min 50 sec) 
Heartbeat CPU  0 instructions:  576000000 cycles:  842507968 heartbeat IPC: 0.56996 cumulative IPC: 0.60109 (Simulation time: 0 hr 21 min 53 sec) 
Heartbeat CPU  0 instructions:  577000000 cycles:  844101470 heartbeat IPC: 0.62755 cumulative IPC: 0.60114 (Simulation time: 0 hr 21 min 55 sec) 
Heartbeat CPU  0 instructions:  578000002 cycles:  845687118 heartbeat IPC: 0.63066 cumulative IPC: 0.60120 (Simulation time: 0 hr 21 min 57 sec) 
Heartbeat CPU  0 instructions:  579000001 cycles:  847266816 heartbeat IPC: 0.63303 cumulative IPC: 0.60127 (Simulation time: 0 hr 22 min 0 sec) 
Heartbeat CPU  0 instructions:  580000000 cycles:  848833102 heartbeat IPC: 0.63845 cumulative IPC: 0.60134 (Simulation time: 0 hr 22 min 2 sec) 
Heartbeat CPU  0 instructions:  581000002 cycles:  850409238 heartbeat IPC: 0.63446 cumulative IPC: 0.60140 (Simulation time: 0 hr 22 min 4 sec) 
Heartbeat CPU  0 instructions:  582000000 cycles:  851832909 heartbeat IPC: 0.70241 cumulative IPC: 0.60158 (Simulation time: 0 hr 22 min 7 sec) 
Heartbeat CPU  0 instructions:  583000003 cycles:  853242067 heartbeat IPC: 0.70965 cumulative IPC: 0.60177 (Simulation time: 0 hr 22 min 9 sec) 
Heartbeat CPU  0 instructions:  584000000 cycles:  854652200 heartbeat IPC: 0.70915 cumulative IPC: 0.60196 (Simulation time: 0 hr 22 min 11 sec) 
Heartbeat CPU  0 instructions:  585000002 cycles:  856045230 heartbeat IPC: 0.71786 cumulative IPC: 0.60216 (Simulation time: 0 hr 22 min 13 sec) 
Heartbeat CPU  0 instructions:  586000003 cycles:  857754317 heartbeat IPC: 0.58511 cumulative IPC: 0.60213 (Simulation time: 0 hr 22 min 16 sec) 
Heartbeat CPU  0 instructions:  587000001 cycles:  859446687 heartbeat IPC: 0.59089 cumulative IPC: 0.60210 (Simulation time: 0 hr 22 min 18 sec) 
Heartbeat CPU  0 instructions:  588000000 cycles:  861031831 heartbeat IPC: 0.63086 cumulative IPC: 0.60216 (Simulation time: 0 hr 22 min 20 sec) 
Heartbeat CPU  0 instructions:  589000002 cycles:  862612394 heartbeat IPC: 0.63269 cumulative IPC: 0.60222 (Simulation time: 0 hr 22 min 23 sec) 
Heartbeat CPU  0 instructions:  590000001 cycles:  864194229 heartbeat IPC: 0.63218 cumulative IPC: 0.60228 (Simulation time: 0 hr 22 min 25 sec) 
Heartbeat CPU  0 instructions:  591000002 cycles:  865761043 heartbeat IPC: 0.63824 cumulative IPC: 0.60235 (Simulation time: 0 hr 22 min 28 sec) 
Heartbeat CPU  0 instructions:  592000000 cycles:  867296466 heartbeat IPC: 0.65128 cumulative IPC: 0.60244 (Simulation time: 0 hr 22 min 30 sec) 
Heartbeat CPU  0 instructions:  593000003 cycles:  868715697 heartbeat IPC: 0.70461 cumulative IPC: 0.60261 (Simulation time: 0 hr 22 min 32 sec) 
Heartbeat CPU  0 instructions:  594000000 cycles:  870100723 heartbeat IPC: 0.72201 cumulative IPC: 0.60282 (Simulation time: 0 hr 22 min 35 sec) 
Heartbeat CPU  0 instructions:  595000003 cycles:  871476775 heartbeat IPC: 0.72672 cumulative IPC: 0.60302 (Simulation time: 0 hr 22 min 37 sec) 
Heartbeat CPU  0 instructions:  596000000 cycles:  873023838 heartbeat IPC: 0.64638 cumulative IPC: 0.60311 (Simulation time: 0 hr 22 min 39 sec) 
Heartbeat CPU  0 instructions:  597000001 cycles:  874725955 heartbeat IPC: 0.58750 cumulative IPC: 0.60307 (Simulation time: 0 hr 22 min 41 sec) 
Heartbeat CPU  0 instructions:  598000002 cycles:  876331056 heartbeat IPC: 0.62301 cumulative IPC: 0.60311 (Simulation time: 0 hr 22 min 44 sec) 
Heartbeat CPU  0 instructions:  599000000 cycles:  877897050 heartbeat IPC: 0.63857 cumulative IPC: 0.60318 (Simulation time: 0 hr 22 min 46 sec) 
Heartbeat CPU  0 instructions:  600000000 cycles:  879466991 heartbeat IPC: 0.63697 cumulative IPC: 0.60324 (Simulation time: 0 hr 22 min 49 sec) 
Finished CPU 0 instructions: 500000001 cycles: 828852490 cumulative IPC: 0.60324 (Simulation time: 0 hr 22 min 49 sec) 

ChampSim completed all CPUs

[ROI Statistics]
Core_0_instructions 500000001
Core_0_cycles 828852490
Core_0_IPC 0.60324

Core_0_branch_prediction_accuracy 99.14585
Core_0_branch_MPKI 0.18961
Core_0_average_ROB_occupancy_at_mispredict 244.15132

Core_0_L1D_total_access 145551463
Core_0_L1D_total_hit 140700336
Core_0_L1D_total_miss 4851127
Core_0_L1D_loads 133977156
Core_0_L1D_load_hit 130516922
Core_0_L1D_load_miss 3460234
Core_0_L1D_RFOs 11574307
Core_0_L1D_RFO_hit 10183414
Core_0_L1D_RFO_miss 1390893
Core_0_L1D_prefetches 0
Core_0_L1D_prefetch_hit 0
Core_0_L1D_prefetch_miss 0
Core_0_L1D_writebacks 0
Core_0_L1D_writeback_hit 0
Core_0_L1D_writeback_miss 0
Core_0_L1D_prefetch_requested 0
Core_0_L1D_prefetch_dropped 0
Core_0_L1D_prefetch_issued 0
Core_0_L1D_prefetch_filled 0
Core_0_L1D_prefetch_useful 0
Core_0_L1D_prefetch_useless 0
Core_0_L1D_prefetch_late 0
Core_0_L1D_average_miss_latency 195.93282

Core_0_L1D_rq_access 196244209
Core_0_L1D_rq_forward 0
Core_0_L1D_rq_merged 60047489
Core_0_L1D_rq_to_cache 136196720
Core_0_L1D_rq_full 0

Core_0_L1D_wq_access 15647860
Core_0_L1D_wq_forward 0
Core_0_L1D_wq_merged 1
Core_0_L1D_wq_to_cache 15647859
Core_0_L1D_wq_full 447055

Core_0_L1D_pq_access 0
Core_0_L1D_pq_forward 0
Core_0_L1D_pq_merged 0
Core_0_L1D_pq_to_cache 0
Core_0_L1D_pq_full 0

Core_0_L1D_acc_epochs 853179
Core_0_L1D_acc_level_0 853179
Core_0_L1D_acc_level_1 0
Core_0_L1D_acc_level_2 0
Core_0_L1D_acc_level_3 0
Core_0_L1D_acc_level_4 0
Core_0_L1D_acc_level_5 0
Core_0_L1D_acc_level_6 0
Core_0_L1D_acc_level_7 0
Core_0_L1D_acc_level_8 0
Core_0_L1D_acc_level_9 0

Core_0_L1I_total_access 116636144
Core_0_L1I_total_hit 116635768
Core_0_L1I_total_miss 376
Core_0_L1I_loads 116636144
Core_0_L1I_load_hit 116635768
Core_0_L1I_load_miss 376
Core_0_L1I_RFOs 0
Core_0_L1I_RFO_hit 0
Core_0_L1I_RFO_miss 0
Core_0_L1I_prefetches 0
Core_0_L1I_prefetch_hit 0
Core_0_L1I_prefetch_miss 0
Core_0_L1I_writebacks 0
Core_0_L1I_writeback_hit 0
Core_0_L1I_writeback_miss 0
Core_0_L1I_prefetch_requested 0
Core_0_L1I_prefetch_dropped 0
Core_0_L1I_prefetch_issued 0
Core_0_L1I_prefetch_filled 0
Core_0_L1I_prefetch_useful 0
Core_0_L1I_prefetch_useless 0
Core_0_L1I_prefetch_late 0
Core_0_L1I_average_miss_latency 286.55851

Core_0_L1I_rq_access 500000000
Core_0_L1I_rq_forward 0
Core_0_L1I_rq_merged 383362805
Core_0_L1I_rq_to_cache 116637195
Core_0_L1I_rq_full 0

Core_0_L1I_wq_access 0
Core_0_L1I_wq_forward 0
Core_0_L1I_wq_merged 0
Core_0_L1I_wq_to_cache 0
Core_0_L1I_wq_full 0

Core_0_L1I_pq_access 0
Core_0_L1I_pq_forward 0
Core_0_L1I_pq_merged 0
Core_0_L1I_pq_to_cache 0
Core_0_L1I_pq_full 0

Core_0_L1I_acc_epochs 853179
Core_0_L1I_acc_level_0 853179
Core_0_L1I_acc_level_1 0
Core_0_L1I_acc_level_2 0
Core_0_L1I_acc_level_3 0
Core_0_L1I_acc_level_4 0
Core_0_L1I_acc_level_5 0
Core_0_L1I_acc_level_6 0
Core_0_L1I_acc_level_7 0
Core_0_L1I_acc_level_8 0
Core_0_L1I_acc_level_9 0

Core_0_L2C_total_access 6510178
Core_0_L2C_total_hit 2858648
Core_0_L2C_total_miss 3651530
Core_0_L2C_loads 3460585
Core_0_L2C_load_hit 838886
Core_0_L2C_load_miss 2621699
Core_0_L2C_RFOs 1390878
Core_0_L2C_RFO_hit 361120
Core_0_L2C_RFO_miss 1029758
Core_0_L2C_prefetches 0
Core_0_L2C_prefetch_hit 0
Core_0_L2C_prefetch_miss 0
Core_0_L2C_writebacks 1658715
Core_0_L2C_writeback_hit 1658642
Core_0_L2C_writeback_miss 73
Core_0_L2C_prefetch_requested 0
Core_0_L2C_prefetch_dropped 0
Core_0_L2C_prefetch_issued 0
Core_0_L2C_prefetch_filled 0
Core_0_L2C_prefetch_useful 0
Core_0_L2C_prefetch_useless 0
Core_0_L2C_prefetch_late 0
Core_0_L2C_average_miss_latency 241.30225

Core_0_L2C_rq_access 4851503
Core_0_L2C_rq_forward 0
Core_0_L2C_rq_merged 0
Core_0_L2C_rq_to_cache 4851463
Core_0_L2C_rq_full 0

Core_0_L2C_wq_access 1658715
Core_0_L2C_wq_forward 40
Core_0_L2C_wq_merged 0
Core_0_L2C_wq_to_cache 1658715
Core_0_L2C_wq_full 0

Core_0_L2C_pq_access 0
Core_0_L2C_pq_forward 0
Core_0_L2C_pq_merged 0
Core_0_L2C_pq_to_cache 0
Core_0_L2C_pq_full 0

Core_0_L2C_acc_epochs 853179
Core_0_L2C_acc_level_0 853179
Core_0_L2C_acc_level_1 0
Core_0_L2C_acc_level_2 0
Core_0_L2C_acc_level_3 0
Core_0_L2C_acc_level_4 0
Core_0_L2C_acc_level_5 0
Core_0_L2C_acc_level_6 0
Core_0_L2C_acc_level_7 0
Core_0_L2C_acc_level_8 0
Core_0_L2C_acc_level_9 0

Core_0_LLC_total_access 4760236
Core_0_LLC_total_hit 500662
Core_0_LLC_total_miss 4259574
Core_0_LLC_loads 2621699
Core_0_LLC_load_hit 111333
Core_0_LLC_load_miss 2510366
Core_0_LLC_RFOs 1029758
Core_0_LLC_RFO_hit 67519
Core_0_LLC_RFO_miss 962239
Core_0_LLC_prefetches 0
Core_0_LLC_prefetch_hit 0
Core_0_LLC_prefetch_miss 0
Core_0_LLC_writebacks 1108779
Core_0_LLC_writeback_hit 321810
Core_0_LLC_writeback_miss 786969
Core_0_LLC_prefetch_requested 0
Core_0_LLC_prefetch_dropped 0
Core_0_LLC_prefetch_issued 0
Core_0_LLC_prefetch_filled 0
Core_0_LLC_prefetch_useful 0
Core_0_LLC_prefetch_useless 0
Core_0_LLC_prefetch_late 0
Core_0_LLC_average_miss_latency 180.90281

Core_0_LLC_rq_access 3651457
Core_0_LLC_rq_forward 0
Core_0_LLC_rq_merged 0
Core_0_LLC_rq_to_cache 3651457
Core_0_LLC_rq_full 0

Core_0_LLC_wq_access 1108779
Core_0_LLC_wq_forward 0
Core_0_LLC_wq_merged 0
Core_0_LLC_wq_to_cache 1108779
Core_0_LLC_wq_full 0

Core_0_LLC_pq_access 0
Core_0_LLC_pq_forward 0
Core_0_LLC_pq_merged 0
Core_0_LLC_pq_to_cache 0
Core_0_LLC_pq_full 0

Core_0_LLC_acc_epochs 858855
Core_0_LLC_acc_level_0 858855
Core_0_LLC_acc_level_1 0
Core_0_LLC_acc_level_2 0
Core_0_LLC_acc_level_3 0
Core_0_LLC_acc_level_4 0
Core_0_LLC_acc_level_5 0
Core_0_LLC_acc_level_6 0
Core_0_LLC_acc_level_7 0
Core_0_LLC_acc_level_8 0
Core_0_LLC_acc_level_9 0

Core_0_major_page_fault 0
Core_0_minor_page_fault 19121

Channel_0_RQ_row_buffer_hit 755251
Channel_0_RQ_row_buffer_miss 2717320
Channel_0_WQ_row_buffer_hit 402321
Channel_0_WQ_row_buffer_miss 646792
Channel_0_WQ_full 0
Channel_0_dbus_congested 591962

avg_congested_cycle 11

DRAM_bw_pochs 3435418
DRAM_bw_level_0 3332937
DRAM_bw_level_1 97379
DRAM_bw_level_2 4786
DRAM_bw_level_3 316
