*************************************************
   ChampSim Multicore Out-of-Order Simulator
   Last compiled: Dec 11 2024 17:59:53
*************************************************
parsing config file: /home/functionmain/桌面/Pythia/config/spp_dev2.ini

trace_0 /home/functionmain/桌面/Pythia/traces/437.leslie3d-149B.champsimtrace.xz
adding L2C_PREFETCHER: SPP_dev2
Initialize SIGNATURE TABLE
ST_SET: 1
ST_WAY: 256
ST_TAG_BIT: 16
ST_TAG_MASK: ffff

Initialize PATTERN TABLE
PT_SET: 512
PT_WAY: 4
SIG_DELTA_BIT: 7
C_SIG_BIT: 4
C_DELTA_BIT: 4

Initialize PREFETCH FILTER
FILTER_SET: 1024
fill_threshold: 90
pf_threshold: 40

Initialize SHIP state
warmup_instructions 100000000
simulation_instructions 500000000
champsim_seed 224
measure_ipc 0
measure_ipc_epoch 1000
measure_dram_bw 1
measure_dram_bw_epoch 256
measure_cache_acc 1
measure_cache_acc_epoch 1024
l1d_perfect 0
l2c_perfect 0
llc_perfect 0
l1d_semi_perfect 0
l2c_semi_perfect 0
llc_semi_perfect 0
semi_perfect_cache_page_buffer_size 64

num_cpus 1
cpu_freq 4000
dram_io_freq 300
page_size 4096
block_size 64
max_read_per_cycle 8
max_fill_per_cycle 1
dram_channels 1
log2_dram_channels 0
dram_ranks 1
dram_banks 8
dram_rows 65536
dram_columns 128
dram_row_size 8
dram_size 4096
dram_pages 1048576

fetch_width 6
decode_width 6
exec_width 4
lq_width 2
sq_width 2
retire_width 4
scheduler_size 128
branch_mispredict_penalty 20
rob_size 256
lq_size 72
sq_size 56
num_instr_destinations_sparc 4
num_instr_destinations 2
num_instr_sources 4

itlb_set 16
itlb_way 8
itlb_rq_size 16
itlb_wq_size 16
itlb_pq_size 0
itlb_mshr_size 8
itlb_latency 1

dtlb_set 16
dtlb_way 4
dtlb_rq_size 16
dtlb_wq_size 16
dtlb_pq_size 0
dtlb_mshr_size 8
dtlb_latency 1

stlb_set 128
stlb_way 12
stlb_rq_size 32
stlb_wq_size 32
stlb_pq_size 0
stlb_mshr_size 16
stlb_latency 8

l1i_size 32
l1i_set 64
l1i_way 8
l1i_rq_size 64
l1i_wq_size 64
l1i_pq_size 8
l1i_mshr_size 8
l1i_latency 1

l1d_size 32
l1d_set 64
l1d_way 8
l1d_rq_size 64
l1d_wq_size 64
l1d_pq_size 8
l1d_mshr_size 16
l1d_latency 4

l2c_size 256
l2c_set 512
l2c_way 8
l2c_rq_size 32
l2c_wq_size 32
l2c_pq_size 32
l2c_mshr_size 32
l2c_latency 10

llc_size 2048
llc_set 2048
llc_way 16
llc_rq_size 32
llc_wq_size 32
llc_pq_size 32
llc_mshr_size 64
llc_latency 20

dram_channel_width 8
dram_wq_size 64
dram_rq_size 64
tRP 15
tRCD 15
tCAS 12.5
dram_dbus_turn_around_time 30
dram_write_high_wm 56
dram_write_low_wm 48
min_dram_writes_per_switch 16
dram_mtps 300
dram_dbus_return_time 106


Heartbeat CPU  0 instructions:    1000002 cycles:     502625 heartbeat IPC: 1.98956 cumulative IPC: 1.98956 (Simulation time: 0 hr 0 min 2 sec) 
Heartbeat CPU  0 instructions:    2000001 cycles:     990802 heartbeat IPC: 2.04844 cumulative IPC: 2.01857 (Simulation time: 0 hr 0 min 4 sec) 
Heartbeat CPU  0 instructions:    3000003 cycles:    1492720 heartbeat IPC: 1.99236 cumulative IPC: 2.00976 (Simulation time: 0 hr 0 min 5 sec) 
Heartbeat CPU  0 instructions:    4000000 cycles:    1994454 heartbeat IPC: 1.99308 cumulative IPC: 2.00556 (Simulation time: 0 hr 0 min 7 sec) 
Heartbeat CPU  0 instructions:    5000000 cycles:    2496700 heartbeat IPC: 1.99106 cumulative IPC: 2.00264 (Simulation time: 0 hr 0 min 9 sec) 
Heartbeat CPU  0 instructions:    6000001 cycles:    2996445 heartbeat IPC: 2.00102 cumulative IPC: 2.00237 (Simulation time: 0 hr 0 min 11 sec) 
Heartbeat CPU  0 instructions:    7000000 cycles:    3486472 heartbeat IPC: 2.04070 cumulative IPC: 2.00776 (Simulation time: 0 hr 0 min 13 sec) 
Heartbeat CPU  0 instructions:    8000000 cycles:    3989432 heartbeat IPC: 1.98823 cumulative IPC: 2.00530 (Simulation time: 0 hr 0 min 14 sec) 
Heartbeat CPU  0 instructions:    9000002 cycles:    4491260 heartbeat IPC: 1.99272 cumulative IPC: 2.00389 (Simulation time: 0 hr 0 min 16 sec) 
Heartbeat CPU  0 instructions:   10000000 cycles:    4993172 heartbeat IPC: 1.99238 cumulative IPC: 2.00273 (Simulation time: 0 hr 0 min 18 sec) 
Heartbeat CPU  0 instructions:   11000002 cycles:    5484105 heartbeat IPC: 2.03694 cumulative IPC: 2.00580 (Simulation time: 0 hr 0 min 20 sec) 
Heartbeat CPU  0 instructions:   12000000 cycles:    5982907 heartbeat IPC: 2.00480 cumulative IPC: 2.00571 (Simulation time: 0 hr 0 min 21 sec) 
Heartbeat CPU  0 instructions:   13000002 cycles:    6485243 heartbeat IPC: 1.99070 cumulative IPC: 2.00455 (Simulation time: 0 hr 0 min 23 sec) 
Heartbeat CPU  0 instructions:   14000003 cycles:    6987461 heartbeat IPC: 1.99117 cumulative IPC: 2.00359 (Simulation time: 0 hr 0 min 25 sec) 
Heartbeat CPU  0 instructions:   15000002 cycles:    7489550 heartbeat IPC: 1.99168 cumulative IPC: 2.00279 (Simulation time: 0 hr 0 min 27 sec) 
Heartbeat CPU  0 instructions:   16000000 cycles:    7977006 heartbeat IPC: 2.05146 cumulative IPC: 2.00576 (Simulation time: 0 hr 0 min 28 sec) 
Heartbeat CPU  0 instructions:   17000001 cycles:    8479796 heartbeat IPC: 1.98890 cumulative IPC: 2.00477 (Simulation time: 0 hr 0 min 30 sec) 
Heartbeat CPU  0 instructions:   18000003 cycles:    8982831 heartbeat IPC: 1.98794 cumulative IPC: 2.00382 (Simulation time: 0 hr 0 min 32 sec) 
Heartbeat CPU  0 instructions:   19000003 cycles:    9484897 heartbeat IPC: 1.99177 cumulative IPC: 2.00319 (Simulation time: 0 hr 0 min 34 sec) 
Heartbeat CPU  0 instructions:   20000000 cycles:    9977004 heartbeat IPC: 2.03207 cumulative IPC: 2.00461 (Simulation time: 0 hr 0 min 35 sec) 
Heartbeat CPU  0 instructions:   21000003 cycles:   10474316 heartbeat IPC: 2.01082 cumulative IPC: 2.00490 (Simulation time: 0 hr 0 min 37 sec) 
Heartbeat CPU  0 instructions:   22000001 cycles:   10976877 heartbeat IPC: 1.98980 cumulative IPC: 2.00421 (Simulation time: 0 hr 0 min 39 sec) 
Heartbeat CPU  0 instructions:   23000002 cycles:   11479349 heartbeat IPC: 1.99016 cumulative IPC: 2.00360 (Simulation time: 0 hr 0 min 41 sec) 
Heartbeat CPU  0 instructions:   24000000 cycles:   11981264 heartbeat IPC: 1.99237 cumulative IPC: 2.00313 (Simulation time: 0 hr 0 min 43 sec) 
Heartbeat CPU  0 instructions:   25000002 cycles:   12468803 heartbeat IPC: 2.05112 cumulative IPC: 2.00500 (Simulation time: 0 hr 0 min 44 sec) 
Heartbeat CPU  0 instructions:   26000002 cycles:   12970573 heartbeat IPC: 1.99294 cumulative IPC: 2.00454 (Simulation time: 0 hr 0 min 46 sec) 
Heartbeat CPU  0 instructions:   27000001 cycles:   13472801 heartbeat IPC: 1.99113 cumulative IPC: 2.00404 (Simulation time: 0 hr 0 min 48 sec) 
Heartbeat CPU  0 instructions:   28000000 cycles:   13975316 heartbeat IPC: 1.98999 cumulative IPC: 2.00353 (Simulation time: 0 hr 0 min 50 sec) 
Heartbeat CPU  0 instructions:   29000003 cycles:   14470150 heartbeat IPC: 2.02089 cumulative IPC: 2.00413 (Simulation time: 0 hr 0 min 51 sec) 
Heartbeat CPU  0 instructions:   30000003 cycles:   14964731 heartbeat IPC: 2.02191 cumulative IPC: 2.00471 (Simulation time: 0 hr 0 min 53 sec) 
Heartbeat CPU  0 instructions:   31000001 cycles:   15466751 heartbeat IPC: 1.99195 cumulative IPC: 2.00430 (Simulation time: 0 hr 0 min 55 sec) 
Heartbeat CPU  0 instructions:   32000000 cycles:   15968971 heartbeat IPC: 1.99116 cumulative IPC: 2.00389 (Simulation time: 0 hr 0 min 57 sec) 
Heartbeat CPU  0 instructions:   33000000 cycles:   16471272 heartbeat IPC: 1.99084 cumulative IPC: 2.00349 (Simulation time: 0 hr 0 min 58 sec) 
Heartbeat CPU  0 instructions:   34000003 cycles:   16958929 heartbeat IPC: 2.05063 cumulative IPC: 2.00484 (Simulation time: 0 hr 1 min 0 sec) 
Heartbeat CPU  0 instructions:   35000003 cycles:   17460773 heartbeat IPC: 1.99265 cumulative IPC: 2.00449 (Simulation time: 0 hr 1 min 2 sec) 
Heartbeat CPU  0 instructions:   36000000 cycles:   17962650 heartbeat IPC: 1.99251 cumulative IPC: 2.00416 (Simulation time: 0 hr 1 min 4 sec) 
Heartbeat CPU  0 instructions:   37000001 cycles:   18465470 heartbeat IPC: 1.98879 cumulative IPC: 2.00374 (Simulation time: 0 hr 1 min 5 sec) 
Heartbeat CPU  0 instructions:   38000003 cycles:   18962919 heartbeat IPC: 2.01026 cumulative IPC: 2.00391 (Simulation time: 0 hr 1 min 7 sec) 
Heartbeat CPU  0 instructions:   39000001 cycles:   19455461 heartbeat IPC: 2.03028 cumulative IPC: 2.00458 (Simulation time: 0 hr 1 min 9 sec) 
Heartbeat CPU  0 instructions:   40000000 cycles:   19957587 heartbeat IPC: 1.99153 cumulative IPC: 2.00425 (Simulation time: 0 hr 1 min 11 sec) 
Heartbeat CPU  0 instructions:   41000002 cycles:   20459845 heartbeat IPC: 1.99101 cumulative IPC: 2.00393 (Simulation time: 0 hr 1 min 12 sec) 
Heartbeat CPU  0 instructions:   42000000 cycles:   20962208 heartbeat IPC: 1.99059 cumulative IPC: 2.00361 (Simulation time: 0 hr 1 min 14 sec) 
Heartbeat CPU  0 instructions:   43000000 cycles:   21450282 heartbeat IPC: 2.04887 cumulative IPC: 2.00464 (Simulation time: 0 hr 1 min 16 sec) 
Heartbeat CPU  0 instructions:   44000000 cycles:   21952414 heartbeat IPC: 1.99151 cumulative IPC: 2.00434 (Simulation time: 0 hr 1 min 18 sec) 
Heartbeat CPU  0 instructions:   45000002 cycles:   22454998 heartbeat IPC: 1.98972 cumulative IPC: 2.00401 (Simulation time: 0 hr 1 min 20 sec) 
Heartbeat CPU  0 instructions:   46000003 cycles:   22956758 heartbeat IPC: 1.99299 cumulative IPC: 2.00377 (Simulation time: 0 hr 1 min 21 sec) 
Heartbeat CPU  0 instructions:   47000000 cycles:   23455716 heartbeat IPC: 2.00417 cumulative IPC: 2.00378 (Simulation time: 0 hr 1 min 23 sec) 
Heartbeat CPU  0 instructions:   48000000 cycles:   23946621 heartbeat IPC: 2.03705 cumulative IPC: 2.00446 (Simulation time: 0 hr 1 min 25 sec) 
Heartbeat CPU  0 instructions:   49000002 cycles:   24449279 heartbeat IPC: 1.98943 cumulative IPC: 2.00415 (Simulation time: 0 hr 1 min 27 sec) 
Heartbeat CPU  0 instructions:   50000003 cycles:   24951566 heartbeat IPC: 1.99090 cumulative IPC: 2.00388 (Simulation time: 0 hr 1 min 28 sec) 
Heartbeat CPU  0 instructions:   51000001 cycles:   25453520 heartbeat IPC: 1.99221 cumulative IPC: 2.00365 (Simulation time: 0 hr 1 min 30 sec) 
Heartbeat CPU  0 instructions:   52000000 cycles:   25943558 heartbeat IPC: 2.04066 cumulative IPC: 2.00435 (Simulation time: 0 hr 1 min 32 sec) 
Heartbeat CPU  0 instructions:   53000003 cycles:   26443295 heartbeat IPC: 2.00106 cumulative IPC: 2.00429 (Simulation time: 0 hr 1 min 34 sec) 
Heartbeat CPU  0 instructions:   54000003 cycles:   26954725 heartbeat IPC: 1.95530 cumulative IPC: 2.00336 (Simulation time: 0 hr 1 min 35 sec) 
Heartbeat CPU  0 instructions:   55000001 cycles:   27473846 heartbeat IPC: 1.92633 cumulative IPC: 2.00190 (Simulation time: 0 hr 1 min 37 sec) 
Heartbeat CPU  0 instructions:   56000000 cycles:   27986356 heartbeat IPC: 1.95118 cumulative IPC: 2.00098 (Simulation time: 0 hr 1 min 39 sec) 
Heartbeat CPU  0 instructions:   57000000 cycles:   28498399 heartbeat IPC: 1.95296 cumulative IPC: 2.00011 (Simulation time: 0 hr 1 min 40 sec) 
Heartbeat CPU  0 instructions:   58000002 cycles:   29012431 heartbeat IPC: 1.94541 cumulative IPC: 1.99914 (Simulation time: 0 hr 1 min 42 sec) 
Heartbeat CPU  0 instructions:   59000003 cycles:   29524091 heartbeat IPC: 1.95442 cumulative IPC: 1.99837 (Simulation time: 0 hr 1 min 44 sec) 
Heartbeat CPU  0 instructions:   60000000 cycles:   30035022 heartbeat IPC: 1.95721 cumulative IPC: 1.99767 (Simulation time: 0 hr 1 min 45 sec) 
Heartbeat CPU  0 instructions:   61000001 cycles:   30547782 heartbeat IPC: 1.95023 cumulative IPC: 1.99687 (Simulation time: 0 hr 1 min 47 sec) 
Heartbeat CPU  0 instructions:   62000003 cycles:   31060371 heartbeat IPC: 1.95088 cumulative IPC: 1.99611 (Simulation time: 0 hr 1 min 49 sec) 
Heartbeat CPU  0 instructions:   63000001 cycles:   31572269 heartbeat IPC: 1.95351 cumulative IPC: 1.99542 (Simulation time: 0 hr 1 min 50 sec) 
Heartbeat CPU  0 instructions:   64000000 cycles:   32085656 heartbeat IPC: 1.94785 cumulative IPC: 1.99466 (Simulation time: 0 hr 1 min 52 sec) 
Heartbeat CPU  0 instructions:   65000000 cycles:   32599011 heartbeat IPC: 1.94797 cumulative IPC: 1.99393 (Simulation time: 0 hr 1 min 54 sec) 
Heartbeat CPU  0 instructions:   66000002 cycles:   33110953 heartbeat IPC: 1.95335 cumulative IPC: 1.99330 (Simulation time: 0 hr 1 min 55 sec) 
Heartbeat CPU  0 instructions:   67000002 cycles:   33624188 heartbeat IPC: 1.94843 cumulative IPC: 1.99261 (Simulation time: 0 hr 1 min 57 sec) 
Heartbeat CPU  0 instructions:   68000000 cycles:   34137562 heartbeat IPC: 1.94789 cumulative IPC: 1.99194 (Simulation time: 0 hr 1 min 59 sec) 
Heartbeat CPU  0 instructions:   69000001 cycles:   34649230 heartbeat IPC: 1.95439 cumulative IPC: 1.99139 (Simulation time: 0 hr 2 min 0 sec) 
Heartbeat CPU  0 instructions:   70000003 cycles:   35162154 heartbeat IPC: 1.94961 cumulative IPC: 1.99078 (Simulation time: 0 hr 2 min 2 sec) 
Heartbeat CPU  0 instructions:   71000002 cycles:   35675044 heartbeat IPC: 1.94973 cumulative IPC: 1.99019 (Simulation time: 0 hr 2 min 3 sec) 
Heartbeat CPU  0 instructions:   72000000 cycles:   36186320 heartbeat IPC: 1.95589 cumulative IPC: 1.98970 (Simulation time: 0 hr 2 min 5 sec) 
Heartbeat CPU  0 instructions:   73000003 cycles:   36698539 heartbeat IPC: 1.95230 cumulative IPC: 1.98918 (Simulation time: 0 hr 2 min 7 sec) 
Heartbeat CPU  0 instructions:   74000001 cycles:   37211037 heartbeat IPC: 1.95122 cumulative IPC: 1.98866 (Simulation time: 0 hr 2 min 8 sec) 
Heartbeat CPU  0 instructions:   75000001 cycles:   37723285 heartbeat IPC: 1.95218 cumulative IPC: 1.98816 (Simulation time: 0 hr 2 min 10 sec) 
Heartbeat CPU  0 instructions:   76000000 cycles:   38236277 heartbeat IPC: 1.94935 cumulative IPC: 1.98764 (Simulation time: 0 hr 2 min 12 sec) 
Heartbeat CPU  0 instructions:   77000001 cycles:   38749933 heartbeat IPC: 1.94683 cumulative IPC: 1.98710 (Simulation time: 0 hr 2 min 13 sec) 
Heartbeat CPU  0 instructions:   78000003 cycles:   39262000 heartbeat IPC: 1.95287 cumulative IPC: 1.98665 (Simulation time: 0 hr 2 min 15 sec) 
Heartbeat CPU  0 instructions:   79000000 cycles:   39774791 heartbeat IPC: 1.95011 cumulative IPC: 1.98618 (Simulation time: 0 hr 2 min 17 sec) 
Heartbeat CPU  0 instructions:   80000000 cycles:   40288439 heartbeat IPC: 1.94686 cumulative IPC: 1.98568 (Simulation time: 0 hr 2 min 18 sec) 
Heartbeat CPU  0 instructions:   81000000 cycles:   40800827 heartbeat IPC: 1.95165 cumulative IPC: 1.98525 (Simulation time: 0 hr 2 min 20 sec) 
Heartbeat CPU  0 instructions:   82000001 cycles:   41313415 heartbeat IPC: 1.95089 cumulative IPC: 1.98483 (Simulation time: 0 hr 2 min 22 sec) 
Heartbeat CPU  0 instructions:   83000001 cycles:   41827241 heartbeat IPC: 1.94618 cumulative IPC: 1.98435 (Simulation time: 0 hr 2 min 23 sec) 
Heartbeat CPU  0 instructions:   84000000 cycles:   42339225 heartbeat IPC: 1.95318 cumulative IPC: 1.98398 (Simulation time: 0 hr 2 min 25 sec) 
Heartbeat CPU  0 instructions:   85000001 cycles:   42851355 heartbeat IPC: 1.95263 cumulative IPC: 1.98360 (Simulation time: 0 hr 2 min 26 sec) 
Heartbeat CPU  0 instructions:   86000002 cycles:   43364814 heartbeat IPC: 1.94758 cumulative IPC: 1.98317 (Simulation time: 0 hr 2 min 28 sec) 
Heartbeat CPU  0 instructions:   87000003 cycles:   43876665 heartbeat IPC: 1.95370 cumulative IPC: 1.98283 (Simulation time: 0 hr 2 min 30 sec) 
Heartbeat CPU  0 instructions:   88000000 cycles:   44388935 heartbeat IPC: 1.95209 cumulative IPC: 1.98248 (Simulation time: 0 hr 2 min 31 sec) 
Heartbeat CPU  0 instructions:   89000002 cycles:   44902829 heartbeat IPC: 1.94593 cumulative IPC: 1.98206 (Simulation time: 0 hr 2 min 33 sec) 
Heartbeat CPU  0 instructions:   90000003 cycles:   45415106 heartbeat IPC: 1.95207 cumulative IPC: 1.98172 (Simulation time: 0 hr 2 min 35 sec) 
Heartbeat CPU  0 instructions:   91000002 cycles:   45926437 heartbeat IPC: 1.95568 cumulative IPC: 1.98143 (Simulation time: 0 hr 2 min 36 sec) 
Heartbeat CPU  0 instructions:   92000000 cycles:   46439663 heartbeat IPC: 1.94846 cumulative IPC: 1.98107 (Simulation time: 0 hr 2 min 38 sec) 
Heartbeat CPU  0 instructions:   93000001 cycles:   46951575 heartbeat IPC: 1.95346 cumulative IPC: 1.98076 (Simulation time: 0 hr 2 min 40 sec) 
Heartbeat CPU  0 instructions:   94000003 cycles:   47463402 heartbeat IPC: 1.95379 cumulative IPC: 1.98047 (Simulation time: 0 hr 2 min 41 sec) 
Heartbeat CPU  0 instructions:   95000003 cycles:   47977378 heartbeat IPC: 1.94562 cumulative IPC: 1.98010 (Simulation time: 0 hr 2 min 43 sec) 
Heartbeat CPU  0 instructions:   96000000 cycles:   48489856 heartbeat IPC: 1.95130 cumulative IPC: 1.97980 (Simulation time: 0 hr 2 min 45 sec) 
Heartbeat CPU  0 instructions:   97000002 cycles:   49001556 heartbeat IPC: 1.95427 cumulative IPC: 1.97953 (Simulation time: 0 hr 2 min 46 sec) 
Heartbeat CPU  0 instructions:   98000000 cycles:   49514773 heartbeat IPC: 1.94849 cumulative IPC: 1.97921 (Simulation time: 0 hr 2 min 48 sec) 
Heartbeat CPU  0 instructions:   99000000 cycles:   50026918 heartbeat IPC: 1.95257 cumulative IPC: 1.97893 (Simulation time: 0 hr 2 min 50 sec) 
Heartbeat CPU  0 instructions:  100000000 cycles:   50563461 heartbeat IPC: 1.86378 cumulative IPC: 1.97771 (Simulation time: 0 hr 2 min 51 sec) 

Warmup complete CPU  0 instructions:  100000001 cycles:   50563482 (Simulation time: 0 hr 2 min 51 sec) 

Heartbeat CPU  0 instructions:  101000003 cycles:   53440863 heartbeat IPC: 0.34754 cumulative IPC: 0.34754 (Simulation time: 0 hr 2 min 55 sec) 
Heartbeat CPU  0 instructions:  102000001 cycles:   61023140 heartbeat IPC: 0.13189 cumulative IPC: 0.19121 (Simulation time: 0 hr 3 min 0 sec) 
Heartbeat CPU  0 instructions:  103000002 cycles:   66340269 heartbeat IPC: 0.18807 cumulative IPC: 0.19015 (Simulation time: 0 hr 3 min 4 sec) 
Heartbeat CPU  0 instructions:  104000000 cycles:   68259625 heartbeat IPC: 0.52101 cumulative IPC: 0.22604 (Simulation time: 0 hr 3 min 7 sec) 
Heartbeat CPU  0 instructions:  105000002 cycles:   70281373 heartbeat IPC: 0.49462 cumulative IPC: 0.25358 (Simulation time: 0 hr 3 min 10 sec) 
Heartbeat CPU  0 instructions:  106000003 cycles:   72325543 heartbeat IPC: 0.48920 cumulative IPC: 0.27571 (Simulation time: 0 hr 3 min 13 sec) 
Heartbeat CPU  0 instructions:  107000000 cycles:   74443288 heartbeat IPC: 0.47220 cumulative IPC: 0.29313 (Simulation time: 0 hr 3 min 16 sec) 
Heartbeat CPU  0 instructions:  108000000 cycles:   76471360 heartbeat IPC: 0.49308 cumulative IPC: 0.30879 (Simulation time: 0 hr 3 min 19 sec) 
Heartbeat CPU  0 instructions:  109000001 cycles:   78346951 heartbeat IPC: 0.53317 cumulative IPC: 0.32393 (Simulation time: 0 hr 3 min 22 sec) 
Heartbeat CPU  0 instructions:  110000001 cycles:   80378595 heartbeat IPC: 0.49221 cumulative IPC: 0.33540 (Simulation time: 0 hr 3 min 25 sec) 
Heartbeat CPU  0 instructions:  111000001 cycles:   82479324 heartbeat IPC: 0.47603 cumulative IPC: 0.34466 (Simulation time: 0 hr 3 min 28 sec) 
Heartbeat CPU  0 instructions:  112000000 cycles:   84562279 heartbeat IPC: 0.48009 cumulative IPC: 0.35295 (Simulation time: 0 hr 3 min 30 sec) 
Heartbeat CPU  0 instructions:  113000003 cycles:   86517480 heartbeat IPC: 0.51146 cumulative IPC: 0.36157 (Simulation time: 0 hr 3 min 33 sec) 
Heartbeat CPU  0 instructions:  114000001 cycles:   88482765 heartbeat IPC: 0.50883 cumulative IPC: 0.36921 (Simulation time: 0 hr 3 min 36 sec) 
Heartbeat CPU  0 instructions:  115000003 cycles:   90447702 heartbeat IPC: 0.50892 cumulative IPC: 0.37609 (Simulation time: 0 hr 3 min 39 sec) 
Heartbeat CPU  0 instructions:  116000000 cycles:   92325752 heartbeat IPC: 0.53247 cumulative IPC: 0.38312 (Simulation time: 0 hr 3 min 42 sec) 
Heartbeat CPU  0 instructions:  117000000 cycles:   93243595 heartbeat IPC: 1.08951 cumulative IPC: 0.39831 (Simulation time: 0 hr 3 min 44 sec) 
Heartbeat CPU  0 instructions:  118000003 cycles:   94095415 heartbeat IPC: 1.17396 cumulative IPC: 0.41349 (Simulation time: 0 hr 3 min 46 sec) 
Heartbeat CPU  0 instructions:  119000000 cycles:   94959069 heartbeat IPC: 1.15787 cumulative IPC: 0.42797 (Simulation time: 0 hr 3 min 48 sec) 
Heartbeat CPU  0 instructions:  120000000 cycles:   95824166 heartbeat IPC: 1.15594 cumulative IPC: 0.44188 (Simulation time: 0 hr 3 min 50 sec) 
Heartbeat CPU  0 instructions:  121000001 cycles:   96700268 heartbeat IPC: 1.14142 cumulative IPC: 0.45517 (Simulation time: 0 hr 3 min 52 sec) 
Heartbeat CPU  0 instructions:  122000002 cycles:   97581082 heartbeat IPC: 1.13531 cumulative IPC: 0.46791 (Simulation time: 0 hr 3 min 54 sec) 
Heartbeat CPU  0 instructions:  123000000 cycles:   98445765 heartbeat IPC: 1.15649 cumulative IPC: 0.48034 (Simulation time: 0 hr 3 min 57 sec) 
Heartbeat CPU  0 instructions:  124000000 cycles:   99342882 heartbeat IPC: 1.11468 cumulative IPC: 0.49201 (Simulation time: 0 hr 3 min 59 sec) 
Heartbeat CPU  0 instructions:  125000002 cycles:  100221906 heartbeat IPC: 1.13763 cumulative IPC: 0.50344 (Simulation time: 0 hr 4 min 1 sec) 
Heartbeat CPU  0 instructions:  126000001 cycles:  101079553 heartbeat IPC: 1.16598 cumulative IPC: 0.51469 (Simulation time: 0 hr 4 min 3 sec) 
Heartbeat CPU  0 instructions:  127000003 cycles:  102028247 heartbeat IPC: 1.05408 cumulative IPC: 0.52463 (Simulation time: 0 hr 4 min 5 sec) 
Heartbeat CPU  0 instructions:  128000000 cycles:  102947419 heartbeat IPC: 1.08793 cumulative IPC: 0.53451 (Simulation time: 0 hr 4 min 7 sec) 
Heartbeat CPU  0 instructions:  129000001 cycles:  103845223 heartbeat IPC: 1.11383 cumulative IPC: 0.54428 (Simulation time: 0 hr 4 min 9 sec) 
Heartbeat CPU  0 instructions:  130000003 cycles:  104739316 heartbeat IPC: 1.11845 cumulative IPC: 0.55375 (Simulation time: 0 hr 4 min 12 sec) 
Heartbeat CPU  0 instructions:  131000000 cycles:  105609576 heartbeat IPC: 1.14908 cumulative IPC: 0.56316 (Simulation time: 0 hr 4 min 14 sec) 
Heartbeat CPU  0 instructions:  132000000 cycles:  106496100 heartbeat IPC: 1.12800 cumulative IPC: 0.57212 (Simulation time: 0 hr 4 min 16 sec) 
Heartbeat CPU  0 instructions:  133000000 cycles:  107381485 heartbeat IPC: 1.12945 cumulative IPC: 0.58080 (Simulation time: 0 hr 4 min 18 sec) 
Heartbeat CPU  0 instructions:  134000003 cycles:  108262601 heartbeat IPC: 1.13493 cumulative IPC: 0.58926 (Simulation time: 0 hr 4 min 20 sec) 
Heartbeat CPU  0 instructions:  135000003 cycles:  109127272 heartbeat IPC: 1.15651 cumulative IPC: 0.59764 (Simulation time: 0 hr 4 min 22 sec) 
Heartbeat CPU  0 instructions:  136000000 cycles:  110009832 heartbeat IPC: 1.13306 cumulative IPC: 0.60559 (Simulation time: 0 hr 4 min 24 sec) 
Heartbeat CPU  0 instructions:  137000003 cycles:  110903041 heartbeat IPC: 1.11956 cumulative IPC: 0.61320 (Simulation time: 0 hr 4 min 27 sec) 
Heartbeat CPU  0 instructions:  138000002 cycles:  111810593 heartbeat IPC: 1.10186 cumulative IPC: 0.62044 (Simulation time: 0 hr 4 min 29 sec) 
Heartbeat CPU  0 instructions:  139000002 cycles:  112739227 heartbeat IPC: 1.07685 cumulative IPC: 0.62725 (Simulation time: 0 hr 4 min 31 sec) 
Heartbeat CPU  0 instructions:  140000000 cycles:  113630600 heartbeat IPC: 1.12186 cumulative IPC: 0.63424 (Simulation time: 0 hr 4 min 33 sec) 
Heartbeat CPU  0 instructions:  141000000 cycles:  114534942 heartbeat IPC: 1.10578 cumulative IPC: 0.64091 (Simulation time: 0 hr 4 min 35 sec) 
Heartbeat CPU  0 instructions:  142000000 cycles:  115415954 heartbeat IPC: 1.13506 cumulative IPC: 0.64762 (Simulation time: 0 hr 4 min 37 sec) 
Heartbeat CPU  0 instructions:  143000003 cycles:  116286245 heartbeat IPC: 1.14904 cumulative IPC: 0.65426 (Simulation time: 0 hr 4 min 39 sec) 
Heartbeat CPU  0 instructions:  144000000 cycles:  117179805 heartbeat IPC: 1.11912 cumulative IPC: 0.66050 (Simulation time: 0 hr 4 min 42 sec) 
Heartbeat CPU  0 instructions:  145000001 cycles:  118065170 heartbeat IPC: 1.12948 cumulative IPC: 0.66665 (Simulation time: 0 hr 4 min 44 sec) 
Heartbeat CPU  0 instructions:  146000003 cycles:  118944486 heartbeat IPC: 1.13725 cumulative IPC: 0.67270 (Simulation time: 0 hr 4 min 46 sec) 
Heartbeat CPU  0 instructions:  147000000 cycles:  119828149 heartbeat IPC: 1.13165 cumulative IPC: 0.67856 (Simulation time: 0 hr 4 min 48 sec) 
Heartbeat CPU  0 instructions:  148000000 cycles:  120721791 heartbeat IPC: 1.11902 cumulative IPC: 0.68417 (Simulation time: 0 hr 4 min 50 sec) 
Heartbeat CPU  0 instructions:  149000003 cycles:  121602567 heartbeat IPC: 1.13537 cumulative IPC: 0.68976 (Simulation time: 0 hr 4 min 52 sec) 
Heartbeat CPU  0 instructions:  150000003 cycles:  122513859 heartbeat IPC: 1.09734 cumulative IPC: 0.69492 (Simulation time: 0 hr 4 min 54 sec) 
Heartbeat CPU  0 instructions:  151000000 cycles:  123415867 heartbeat IPC: 1.10863 cumulative IPC: 0.70005 (Simulation time: 0 hr 4 min 57 sec) 
Heartbeat CPU  0 instructions:  152000000 cycles:  124286705 heartbeat IPC: 1.14832 cumulative IPC: 0.70534 (Simulation time: 0 hr 4 min 59 sec) 
Heartbeat CPU  0 instructions:  153000002 cycles:  125180487 heartbeat IPC: 1.11884 cumulative IPC: 0.71029 (Simulation time: 0 hr 5 min 1 sec) 
Heartbeat CPU  0 instructions:  154000002 cycles:  126055486 heartbeat IPC: 1.14286 cumulative IPC: 0.71531 (Simulation time: 0 hr 5 min 3 sec) 
Heartbeat CPU  0 instructions:  155000001 cycles:  126975549 heartbeat IPC: 1.08688 cumulative IPC: 0.71978 (Simulation time: 0 hr 5 min 5 sec) 
Heartbeat CPU  0 instructions:  156000000 cycles:  127856841 heartbeat IPC: 1.13470 cumulative IPC: 0.72451 (Simulation time: 0 hr 5 min 7 sec) 
Heartbeat CPU  0 instructions:  157000000 cycles:  128732859 heartbeat IPC: 1.14153 cumulative IPC: 0.72919 (Simulation time: 0 hr 5 min 9 sec) 
Heartbeat CPU  0 instructions:  158000001 cycles:  129623185 heartbeat IPC: 1.12319 cumulative IPC: 0.73362 (Simulation time: 0 hr 5 min 12 sec) 
Heartbeat CPU  0 instructions:  159000003 cycles:  130513660 heartbeat IPC: 1.12300 cumulative IPC: 0.73796 (Simulation time: 0 hr 5 min 14 sec) 
Heartbeat CPU  0 instructions:  160000000 cycles:  131410068 heartbeat IPC: 1.11556 cumulative IPC: 0.74215 (Simulation time: 0 hr 5 min 16 sec) 
Heartbeat CPU  0 instructions:  161000001 cycles:  132302345 heartbeat IPC: 1.12073 cumulative IPC: 0.74628 (Simulation time: 0 hr 5 min 18 sec) 
Heartbeat CPU  0 instructions:  162000000 cycles:  133171199 heartbeat IPC: 1.15094 cumulative IPC: 0.75054 (Simulation time: 0 hr 5 min 20 sec) 
Heartbeat CPU  0 instructions:  163000003 cycles:  134068484 heartbeat IPC: 1.11448 cumulative IPC: 0.75445 (Simulation time: 0 hr 5 min 22 sec) 
Heartbeat CPU  0 instructions:  164000000 cycles:  134962112 heartbeat IPC: 1.11903 cumulative IPC: 0.75831 (Simulation time: 0 hr 5 min 24 sec) 
Heartbeat CPU  0 instructions:  165000000 cycles:  135833138 heartbeat IPC: 1.14807 cumulative IPC: 0.76229 (Simulation time: 0 hr 5 min 27 sec) 
Heartbeat CPU  0 instructions:  166000000 cycles:  136721501 heartbeat IPC: 1.12567 cumulative IPC: 0.76603 (Simulation time: 0 hr 5 min 29 sec) 
Heartbeat CPU  0 instructions:  167000003 cycles:  137584925 heartbeat IPC: 1.15818 cumulative IPC: 0.76993 (Simulation time: 0 hr 5 min 31 sec) 
Heartbeat CPU  0 instructions:  168000000 cycles:  138475191 heartbeat IPC: 1.12326 cumulative IPC: 0.77350 (Simulation time: 0 hr 5 min 33 sec) 
Heartbeat CPU  0 instructions:  169000003 cycles:  139396403 heartbeat IPC: 1.08553 cumulative IPC: 0.77674 (Simulation time: 0 hr 5 min 35 sec) 
Heartbeat CPU  0 instructions:  170000001 cycles:  140277089 heartbeat IPC: 1.13548 cumulative IPC: 0.78026 (Simulation time: 0 hr 5 min 37 sec) 
Heartbeat CPU  0 instructions:  171000002 cycles:  141148121 heartbeat IPC: 1.14806 cumulative IPC: 0.78380 (Simulation time: 0 hr 5 min 39 sec) 
Heartbeat CPU  0 instructions:  172000000 cycles:  142029077 heartbeat IPC: 1.13513 cumulative IPC: 0.78718 (Simulation time: 0 hr 5 min 42 sec) 
Heartbeat CPU  0 instructions:  173000002 cycles:  142897905 heartbeat IPC: 1.15098 cumulative IPC: 0.79060 (Simulation time: 0 hr 5 min 44 sec) 
Heartbeat CPU  0 instructions:  174000000 cycles:  143779083 heartbeat IPC: 1.13484 cumulative IPC: 0.79386 (Simulation time: 0 hr 5 min 46 sec) 
Heartbeat CPU  0 instructions:  175000001 cycles:  144686527 heartbeat IPC: 1.10200 cumulative IPC: 0.79683 (Simulation time: 0 hr 5 min 48 sec) 
Heartbeat CPU  0 instructions:  176000000 cycles:  145577454 heartbeat IPC: 1.12243 cumulative IPC: 0.79988 (Simulation time: 0 hr 5 min 50 sec) 
Heartbeat CPU  0 instructions:  177000000 cycles:  146454123 heartbeat IPC: 1.14068 cumulative IPC: 0.80300 (Simulation time: 0 hr 5 min 52 sec) 
Heartbeat CPU  0 instructions:  178000003 cycles:  147357827 heartbeat IPC: 1.10656 cumulative IPC: 0.80583 (Simulation time: 0 hr 5 min 54 sec) 
Heartbeat CPU  0 instructions:  179000000 cycles:  148235595 heartbeat IPC: 1.13925 cumulative IPC: 0.80883 (Simulation time: 0 hr 5 min 57 sec) 
Heartbeat CPU  0 instructions:  180000000 cycles:  149111589 heartbeat IPC: 1.14156 cumulative IPC: 0.81179 (Simulation time: 0 hr 5 min 59 sec) 
Heartbeat CPU  0 instructions:  181000003 cycles:  150006193 heartbeat IPC: 1.11782 cumulative IPC: 0.81454 (Simulation time: 0 hr 6 min 1 sec) 
Heartbeat CPU  0 instructions:  182000003 cycles:  150893692 heartbeat IPC: 1.12676 cumulative IPC: 0.81730 (Simulation time: 0 hr 6 min 3 sec) 
Heartbeat CPU  0 instructions:  183000003 cycles:  151773786 heartbeat IPC: 1.13624 cumulative IPC: 0.82007 (Simulation time: 0 hr 6 min 5 sec) 
Heartbeat CPU  0 instructions:  184000000 cycles:  152660158 heartbeat IPC: 1.12819 cumulative IPC: 0.82275 (Simulation time: 0 hr 6 min 7 sec) 
Heartbeat CPU  0 instructions:  185000002 cycles:  153554398 heartbeat IPC: 1.11827 cumulative IPC: 0.82532 (Simulation time: 0 hr 6 min 9 sec) 
Heartbeat CPU  0 instructions:  186000002 cycles:  154443925 heartbeat IPC: 1.12419 cumulative IPC: 0.82787 (Simulation time: 0 hr 6 min 12 sec) 
Heartbeat CPU  0 instructions:  187000001 cycles:  156103128 heartbeat IPC: 0.60270 cumulative IPC: 0.82433 (Simulation time: 0 hr 6 min 14 sec) 
Heartbeat CPU  0 instructions:  188000000 cycles:  158157218 heartbeat IPC: 0.48683 cumulative IPC: 0.81789 (Simulation time: 0 hr 6 min 17 sec) 
Heartbeat CPU  0 instructions:  189000000 cycles:  160031469 heartbeat IPC: 0.53355 cumulative IPC: 0.81302 (Simulation time: 0 hr 6 min 19 sec) 
Heartbeat CPU  0 instructions:  190000000 cycles:  161808014 heartbeat IPC: 0.56289 cumulative IPC: 0.80903 (Simulation time: 0 hr 6 min 22 sec) 
Heartbeat CPU  0 instructions:  191000003 cycles:  163551157 heartbeat IPC: 0.57368 cumulative IPC: 0.80540 (Simulation time: 0 hr 6 min 24 sec) 
Heartbeat CPU  0 instructions:  192000000 cycles:  165283795 heartbeat IPC: 0.57715 cumulative IPC: 0.80195 (Simulation time: 0 hr 6 min 27 sec) 
Heartbeat CPU  0 instructions:  193000003 cycles:  167082245 heartbeat IPC: 0.55604 cumulative IPC: 0.79815 (Simulation time: 0 hr 6 min 29 sec) 
Heartbeat CPU  0 instructions:  194000001 cycles:  168892477 heartbeat IPC: 0.55241 cumulative IPC: 0.79440 (Simulation time: 0 hr 6 min 32 sec) 
Heartbeat CPU  0 instructions:  195000000 cycles:  170706609 heartbeat IPC: 0.55123 cumulative IPC: 0.79072 (Simulation time: 0 hr 6 min 34 sec) 
Heartbeat CPU  0 instructions:  196000000 cycles:  172471965 heartbeat IPC: 0.56646 cumulative IPC: 0.78748 (Simulation time: 0 hr 6 min 36 sec) 
Heartbeat CPU  0 instructions:  197000000 cycles:  174299078 heartbeat IPC: 0.54731 cumulative IPC: 0.78393 (Simulation time: 0 hr 6 min 39 sec) 
Heartbeat CPU  0 instructions:  198000002 cycles:  176011464 heartbeat IPC: 0.58398 cumulative IPC: 0.78120 (Simulation time: 0 hr 6 min 41 sec) 
Heartbeat CPU  0 instructions:  199000001 cycles:  177757968 heartbeat IPC: 0.57257 cumulative IPC: 0.77834 (Simulation time: 0 hr 6 min 44 sec) 
Heartbeat CPU  0 instructions:  200000000 cycles:  179494592 heartbeat IPC: 0.57583 cumulative IPC: 0.77561 (Simulation time: 0 hr 6 min 46 sec) 
Heartbeat CPU  0 instructions:  201000001 cycles:  181161921 heartbeat IPC: 0.59976 cumulative IPC: 0.77336 (Simulation time: 0 hr 6 min 49 sec) 
Heartbeat CPU  0 instructions:  202000002 cycles:  182859510 heartbeat IPC: 0.58907 cumulative IPC: 0.77100 (Simulation time: 0 hr 6 min 51 sec) 
Heartbeat CPU  0 instructions:  203000002 cycles:  184635603 heartbeat IPC: 0.56303 cumulative IPC: 0.76824 (Simulation time: 0 hr 6 min 54 sec) 
Heartbeat CPU  0 instructions:  204000000 cycles:  186404748 heartbeat IPC: 0.56524 cumulative IPC: 0.76560 (Simulation time: 0 hr 6 min 56 sec) 
Heartbeat CPU  0 instructions:  205000003 cycles:  188174291 heartbeat IPC: 0.56512 cumulative IPC: 0.76302 (Simulation time: 0 hr 6 min 59 sec) 
Heartbeat CPU  0 instructions:  206000000 cycles:  189961876 heartbeat IPC: 0.55941 cumulative IPC: 0.76041 (Simulation time: 0 hr 7 min 1 sec) 
Heartbeat CPU  0 instructions:  207000001 cycles:  191704785 heartbeat IPC: 0.57375 cumulative IPC: 0.75811 (Simulation time: 0 hr 7 min 4 sec) 
Heartbeat CPU  0 instructions:  208000000 cycles:  193451554 heartbeat IPC: 0.57248 cumulative IPC: 0.75584 (Simulation time: 0 hr 7 min 6 sec) 
Heartbeat CPU  0 instructions:  209000001 cycles:  195210328 heartbeat IPC: 0.56858 cumulative IPC: 0.75356 (Simulation time: 0 hr 7 min 9 sec) 
Heartbeat CPU  0 instructions:  210000003 cycles:  196938605 heartbeat IPC: 0.57861 cumulative IPC: 0.75149 (Simulation time: 0 hr 7 min 11 sec) 
Heartbeat CPU  0 instructions:  211000001 cycles:  198690780 heartbeat IPC: 0.57072 cumulative IPC: 0.74936 (Simulation time: 0 hr 7 min 14 sec) 
Heartbeat CPU  0 instructions:  212000000 cycles:  200403561 heartbeat IPC: 0.58385 cumulative IPC: 0.74746 (Simulation time: 0 hr 7 min 16 sec) 
Heartbeat CPU  0 instructions:  213000001 cycles:  202029874 heartbeat IPC: 0.61489 cumulative IPC: 0.74604 (Simulation time: 0 hr 7 min 19 sec) 
Heartbeat CPU  0 instructions:  214000002 cycles:  203555499 heartbeat IPC: 0.65547 cumulative IPC: 0.74514 (Simulation time: 0 hr 7 min 21 sec) 
Heartbeat CPU  0 instructions:  215000002 cycles:  205129229 heartbeat IPC: 0.63543 cumulative IPC: 0.74402 (Simulation time: 0 hr 7 min 24 sec) 
Heartbeat CPU  0 instructions:  216000000 cycles:  206756165 heartbeat IPC: 0.61465 cumulative IPC: 0.74267 (Simulation time: 0 hr 7 min 27 sec) 
Heartbeat CPU  0 instructions:  217000002 cycles:  208351754 heartbeat IPC: 0.62673 cumulative IPC: 0.74150 (Simulation time: 0 hr 7 min 30 sec) 
Heartbeat CPU  0 instructions:  218000003 cycles:  209880327 heartbeat IPC: 0.65421 cumulative IPC: 0.74066 (Simulation time: 0 hr 7 min 32 sec) 
Heartbeat CPU  0 instructions:  219000000 cycles:  211408149 heartbeat IPC: 0.65452 cumulative IPC: 0.73984 (Simulation time: 0 hr 7 min 35 sec) 
Heartbeat CPU  0 instructions:  220000000 cycles:  213039062 heartbeat IPC: 0.61315 cumulative IPC: 0.73857 (Simulation time: 0 hr 7 min 38 sec) 
Heartbeat CPU  0 instructions:  221000000 cycles:  214638012 heartbeat IPC: 0.62541 cumulative IPC: 0.73747 (Simulation time: 0 hr 7 min 40 sec) 
Heartbeat CPU  0 instructions:  222000001 cycles:  216245852 heartbeat IPC: 0.62195 cumulative IPC: 0.73635 (Simulation time: 0 hr 7 min 43 sec) 
Heartbeat CPU  0 instructions:  223000000 cycles:  217834460 heartbeat IPC: 0.62948 cumulative IPC: 0.73533 (Simulation time: 0 hr 7 min 46 sec) 
Heartbeat CPU  0 instructions:  224000000 cycles:  219362601 heartbeat IPC: 0.65439 cumulative IPC: 0.73460 (Simulation time: 0 hr 7 min 48 sec) 
Heartbeat CPU  0 instructions:  225000002 cycles:  220911474 heartbeat IPC: 0.64563 cumulative IPC: 0.73379 (Simulation time: 0 hr 7 min 51 sec) 
Heartbeat CPU  0 instructions:  226000003 cycles:  222513960 heartbeat IPC: 0.62403 cumulative IPC: 0.73277 (Simulation time: 0 hr 7 min 54 sec) 
Heartbeat CPU  0 instructions:  227000002 cycles:  224113886 heartbeat IPC: 0.62503 cumulative IPC: 0.73178 (Simulation time: 0 hr 7 min 57 sec) 
Heartbeat CPU  0 instructions:  228000000 cycles:  225666419 heartbeat IPC: 0.64411 cumulative IPC: 0.73100 (Simulation time: 0 hr 7 min 59 sec) 
Heartbeat CPU  0 instructions:  229000002 cycles:  227203348 heartbeat IPC: 0.65065 cumulative IPC: 0.73030 (Simulation time: 0 hr 8 min 2 sec) 
Heartbeat CPU  0 instructions:  230000000 cycles:  228817074 heartbeat IPC: 0.61968 cumulative IPC: 0.72930 (Simulation time: 0 hr 8 min 5 sec) 
Heartbeat CPU  0 instructions:  231000001 cycles:  230422167 heartbeat IPC: 0.62302 cumulative IPC: 0.72835 (Simulation time: 0 hr 8 min 7 sec) 
Heartbeat CPU  0 instructions:  232000000 cycles:  232042677 heartbeat IPC: 0.61709 cumulative IPC: 0.72736 (Simulation time: 0 hr 8 min 10 sec) 
Heartbeat CPU  0 instructions:  233000001 cycles:  233651423 heartbeat IPC: 0.62160 cumulative IPC: 0.72643 (Simulation time: 0 hr 8 min 13 sec) 
Heartbeat CPU  0 instructions:  234000002 cycles:  235221031 heartbeat IPC: 0.63710 cumulative IPC: 0.72567 (Simulation time: 0 hr 8 min 15 sec) 
Heartbeat CPU  0 instructions:  235000002 cycles:  236780382 heartbeat IPC: 0.64129 cumulative IPC: 0.72496 (Simulation time: 0 hr 8 min 18 sec) 
Heartbeat CPU  0 instructions:  236000000 cycles:  238317641 heartbeat IPC: 0.65051 cumulative IPC: 0.72435 (Simulation time: 0 hr 8 min 21 sec) 
Heartbeat CPU  0 instructions:  237000003 cycles:  239858819 heartbeat IPC: 0.64886 cumulative IPC: 0.72374 (Simulation time: 0 hr 8 min 23 sec) 
Heartbeat CPU  0 instructions:  238000003 cycles:  241383055 heartbeat IPC: 0.65607 cumulative IPC: 0.72320 (Simulation time: 0 hr 8 min 26 sec) 
Heartbeat CPU  0 instructions:  239000000 cycles:  242913356 heartbeat IPC: 0.65346 cumulative IPC: 0.72264 (Simulation time: 0 hr 8 min 29 sec) 
Heartbeat CPU  0 instructions:  240000000 cycles:  244476667 heartbeat IPC: 0.63967 cumulative IPC: 0.72197 (Simulation time: 0 hr 8 min 31 sec) 
Heartbeat CPU  0 instructions:  241000000 cycles:  245993361 heartbeat IPC: 0.65933 cumulative IPC: 0.72149 (Simulation time: 0 hr 8 min 34 sec) 
Heartbeat CPU  0 instructions:  242000001 cycles:  247540911 heartbeat IPC: 0.64618 cumulative IPC: 0.72089 (Simulation time: 0 hr 8 min 37 sec) 
Heartbeat CPU  0 instructions:  243000000 cycles:  249071170 heartbeat IPC: 0.65348 cumulative IPC: 0.72038 (Simulation time: 0 hr 8 min 39 sec) 
Heartbeat CPU  0 instructions:  244000000 cycles:  250625079 heartbeat IPC: 0.64354 cumulative IPC: 0.71978 (Simulation time: 0 hr 8 min 42 sec) 
Heartbeat CPU  0 instructions:  245000002 cycles:  252167760 heartbeat IPC: 0.64822 cumulative IPC: 0.71923 (Simulation time: 0 hr 8 min 45 sec) 
Heartbeat CPU  0 instructions:  246000001 cycles:  253730270 heartbeat IPC: 0.64000 cumulative IPC: 0.71862 (Simulation time: 0 hr 8 min 48 sec) 
Heartbeat CPU  0 instructions:  247000003 cycles:  255331458 heartbeat IPC: 0.62454 cumulative IPC: 0.71789 (Simulation time: 0 hr 8 min 50 sec) 
Heartbeat CPU  0 instructions:  248000000 cycles:  256916945 heartbeat IPC: 0.63072 cumulative IPC: 0.71722 (Simulation time: 0 hr 8 min 53 sec) 
Heartbeat CPU  0 instructions:  249000003 cycles:  258518484 heartbeat IPC: 0.62440 cumulative IPC: 0.71650 (Simulation time: 0 hr 8 min 56 sec) 
Heartbeat CPU  0 instructions:  250000000 cycles:  260140551 heartbeat IPC: 0.61650 cumulative IPC: 0.71573 (Simulation time: 0 hr 8 min 58 sec) 
Heartbeat CPU  0 instructions:  251000000 cycles:  261499430 heartbeat IPC: 0.73590 cumulative IPC: 0.71586 (Simulation time: 0 hr 9 min 1 sec) 
Heartbeat CPU  0 instructions:  252000000 cycles:  262430744 heartbeat IPC: 1.07375 cumulative IPC: 0.71743 (Simulation time: 0 hr 9 min 3 sec) 
Heartbeat CPU  0 instructions:  253000002 cycles:  263372424 heartbeat IPC: 1.06193 cumulative IPC: 0.71895 (Simulation time: 0 hr 9 min 5 sec) 
Heartbeat CPU  0 instructions:  254000003 cycles:  264311183 heartbeat IPC: 1.06524 cumulative IPC: 0.72048 (Simulation time: 0 hr 9 min 7 sec) 
Heartbeat CPU  0 instructions:  255000000 cycles:  265245332 heartbeat IPC: 1.07049 cumulative IPC: 0.72200 (Simulation time: 0 hr 9 min 10 sec) 
Heartbeat CPU  0 instructions:  256000000 cycles:  266186827 heartbeat IPC: 1.06214 cumulative IPC: 0.72348 (Simulation time: 0 hr 9 min 12 sec) 
Heartbeat CPU  0 instructions:  257000000 cycles:  267120612 heartbeat IPC: 1.07091 cumulative IPC: 0.72498 (Simulation time: 0 hr 9 min 14 sec) 
Heartbeat CPU  0 instructions:  258000002 cycles:  268062392 heartbeat IPC: 1.06182 cumulative IPC: 0.72644 (Simulation time: 0 hr 9 min 16 sec) 
Heartbeat CPU  0 instructions:  259000000 cycles:  269003904 heartbeat IPC: 1.06212 cumulative IPC: 0.72789 (Simulation time: 0 hr 9 min 18 sec) 
Heartbeat CPU  0 instructions:  260000000 cycles:  269942182 heartbeat IPC: 1.06578 cumulative IPC: 0.72933 (Simulation time: 0 hr 9 min 21 sec) 
Heartbeat CPU  0 instructions:  261000001 cycles:  270876128 heartbeat IPC: 1.07073 cumulative IPC: 0.73078 (Simulation time: 0 hr 9 min 23 sec) 
Heartbeat CPU  0 instructions:  262000000 cycles:  271841395 heartbeat IPC: 1.03598 cumulative IPC: 0.73211 (Simulation time: 0 hr 9 min 25 sec) 
Heartbeat CPU  0 instructions:  263000002 cycles:  272768606 heartbeat IPC: 1.07851 cumulative IPC: 0.73356 (Simulation time: 0 hr 9 min 27 sec) 
Heartbeat CPU  0 instructions:  264000000 cycles:  273715562 heartbeat IPC: 1.05601 cumulative IPC: 0.73492 (Simulation time: 0 hr 9 min 29 sec) 
Heartbeat CPU  0 instructions:  265000002 cycles:  274640121 heartbeat IPC: 1.08160 cumulative IPC: 0.73636 (Simulation time: 0 hr 9 min 31 sec) 
Heartbeat CPU  0 instructions:  266000000 cycles:  275578995 heartbeat IPC: 1.06510 cumulative IPC: 0.73773 (Simulation time: 0 hr 9 min 34 sec) 
Heartbeat CPU  0 instructions:  267000000 cycles:  276499820 heartbeat IPC: 1.08598 cumulative IPC: 0.73915 (Simulation time: 0 hr 9 min 36 sec) 
Heartbeat CPU  0 instructions:  268000000 cycles:  277441950 heartbeat IPC: 1.06142 cumulative IPC: 0.74048 (Simulation time: 0 hr 9 min 38 sec) 
Heartbeat CPU  0 instructions:  269000000 cycles:  278379402 heartbeat IPC: 1.06672 cumulative IPC: 0.74183 (Simulation time: 0 hr 9 min 40 sec) 
Heartbeat CPU  0 instructions:  270000003 cycles:  279311076 heartbeat IPC: 1.07334 cumulative IPC: 0.74318 (Simulation time: 0 hr 9 min 42 sec) 
Heartbeat CPU  0 instructions:  271000000 cycles:  280252061 heartbeat IPC: 1.06271 cumulative IPC: 0.74449 (Simulation time: 0 hr 9 min 45 sec) 
Heartbeat CPU  0 instructions:  272000000 cycles:  281228115 heartbeat IPC: 1.02453 cumulative IPC: 0.74567 (Simulation time: 0 hr 9 min 47 sec) 
Heartbeat CPU  0 instructions:  273000000 cycles:  282167749 heartbeat IPC: 1.06424 cumulative IPC: 0.74696 (Simulation time: 0 hr 9 min 49 sec) 
Heartbeat CPU  0 instructions:  274000002 cycles:  283096396 heartbeat IPC: 1.07684 cumulative IPC: 0.74828 (Simulation time: 0 hr 9 min 51 sec) 
Heartbeat CPU  0 instructions:  275000000 cycles:  284035185 heartbeat IPC: 1.06520 cumulative IPC: 0.74956 (Simulation time: 0 hr 9 min 53 sec) 
Heartbeat CPU  0 instructions:  276000000 cycles:  284963002 heartbeat IPC: 1.07780 cumulative IPC: 0.75085 (Simulation time: 0 hr 9 min 55 sec) 
Heartbeat CPU  0 instructions:  277000002 cycles:  285900816 heartbeat IPC: 1.06631 cumulative IPC: 0.75211 (Simulation time: 0 hr 9 min 58 sec) 
Heartbeat CPU  0 instructions:  278000002 cycles:  286838339 heartbeat IPC: 1.06664 cumulative IPC: 0.75336 (Simulation time: 0 hr 10 min 0 sec) 
Heartbeat CPU  0 instructions:  279000000 cycles:  287778601 heartbeat IPC: 1.06353 cumulative IPC: 0.75459 (Simulation time: 0 hr 10 min 2 sec) 
Heartbeat CPU  0 instructions:  280000000 cycles:  288711722 heartbeat IPC: 1.07167 cumulative IPC: 0.75583 (Simulation time: 0 hr 10 min 4 sec) 
Heartbeat CPU  0 instructions:  281000002 cycles:  289653532 heartbeat IPC: 1.06179 cumulative IPC: 0.75704 (Simulation time: 0 hr 10 min 6 sec) 
Heartbeat CPU  0 instructions:  282000002 cycles:  290615177 heartbeat IPC: 1.03988 cumulative IPC: 0.75817 (Simulation time: 0 hr 10 min 9 sec) 
Heartbeat CPU  0 instructions:  283000001 cycles:  291552802 heartbeat IPC: 1.06652 cumulative IPC: 0.75937 (Simulation time: 0 hr 10 min 11 sec) 
Heartbeat CPU  0 instructions:  284000000 cycles:  292487051 heartbeat IPC: 1.07038 cumulative IPC: 0.76057 (Simulation time: 0 hr 10 min 13 sec) 
Heartbeat CPU  0 instructions:  285000003 cycles:  293427809 heartbeat IPC: 1.06298 cumulative IPC: 0.76174 (Simulation time: 0 hr 10 min 15 sec) 
Heartbeat CPU  0 instructions:  286000003 cycles:  294363313 heartbeat IPC: 1.06894 cumulative IPC: 0.76292 (Simulation time: 0 hr 10 min 17 sec) 
Heartbeat CPU  0 instructions:  287000001 cycles:  295297391 heartbeat IPC: 1.07057 cumulative IPC: 0.76410 (Simulation time: 0 hr 10 min 19 sec) 
Heartbeat CPU  0 instructions:  288000000 cycles:  296234267 heartbeat IPC: 1.06738 cumulative IPC: 0.76525 (Simulation time: 0 hr 10 min 22 sec) 
Heartbeat CPU  0 instructions:  289000001 cycles:  297171827 heartbeat IPC: 1.06660 cumulative IPC: 0.76640 (Simulation time: 0 hr 10 min 24 sec) 
Heartbeat CPU  0 instructions:  290000003 cycles:  298114241 heartbeat IPC: 1.06111 cumulative IPC: 0.76752 (Simulation time: 0 hr 10 min 26 sec) 
Heartbeat CPU  0 instructions:  291000003 cycles:  299046058 heartbeat IPC: 1.07317 cumulative IPC: 0.76867 (Simulation time: 0 hr 10 min 28 sec) 
Heartbeat CPU  0 instructions:  292000000 cycles:  299989712 heartbeat IPC: 1.05971 cumulative IPC: 0.76977 (Simulation time: 0 hr 10 min 30 sec) 
Heartbeat CPU  0 instructions:  293000002 cycles:  300959958 heartbeat IPC: 1.03067 cumulative IPC: 0.77078 (Simulation time: 0 hr 10 min 33 sec) 
Heartbeat CPU  0 instructions:  294000002 cycles:  301911705 heartbeat IPC: 1.05070 cumulative IPC: 0.77184 (Simulation time: 0 hr 10 min 35 sec) 
Heartbeat CPU  0 instructions:  295000001 cycles:  302842011 heartbeat IPC: 1.07491 cumulative IPC: 0.77296 (Simulation time: 0 hr 10 min 37 sec) 
Heartbeat CPU  0 instructions:  296000000 cycles:  303781484 heartbeat IPC: 1.06443 cumulative IPC: 0.77404 (Simulation time: 0 hr 10 min 39 sec) 
Heartbeat CPU  0 instructions:  297000003 cycles:  304710247 heartbeat IPC: 1.07670 cumulative IPC: 0.77514 (Simulation time: 0 hr 10 min 41 sec) 
Heartbeat CPU  0 instructions:  298000000 cycles:  305647470 heartbeat IPC: 1.06698 cumulative IPC: 0.77621 (Simulation time: 0 hr 10 min 44 sec) 
Heartbeat CPU  0 instructions:  299000003 cycles:  306586441 heartbeat IPC: 1.06500 cumulative IPC: 0.77727 (Simulation time: 0 hr 10 min 46 sec) 
Heartbeat CPU  0 instructions:  300000000 cycles:  307522112 heartbeat IPC: 1.06875 cumulative IPC: 0.77834 (Simulation time: 0 hr 10 min 48 sec) 
Heartbeat CPU  0 instructions:  301000000 cycles:  308459394 heartbeat IPC: 1.06691 cumulative IPC: 0.77938 (Simulation time: 0 hr 10 min 50 sec) 
Heartbeat CPU  0 instructions:  302000003 cycles:  309391693 heartbeat IPC: 1.07262 cumulative IPC: 0.78044 (Simulation time: 0 hr 10 min 52 sec) 
Heartbeat CPU  0 instructions:  303000000 cycles:  310361585 heartbeat IPC: 1.03104 cumulative IPC: 0.78138 (Simulation time: 0 hr 10 min 54 sec) 
Heartbeat CPU  0 instructions:  304000000 cycles:  311293115 heartbeat IPC: 1.07350 cumulative IPC: 0.78242 (Simulation time: 0 hr 10 min 57 sec) 
Heartbeat CPU  0 instructions:  305000003 cycles:  312236067 heartbeat IPC: 1.06050 cumulative IPC: 0.78342 (Simulation time: 0 hr 10 min 59 sec) 
Heartbeat CPU  0 instructions:  306000001 cycles:  313165090 heartbeat IPC: 1.07640 cumulative IPC: 0.78446 (Simulation time: 0 hr 11 min 1 sec) 
Heartbeat CPU  0 instructions:  307000001 cycles:  314105368 heartbeat IPC: 1.06352 cumulative IPC: 0.78545 (Simulation time: 0 hr 11 min 3 sec) 
Heartbeat CPU  0 instructions:  308000000 cycles:  315031875 heartbeat IPC: 1.07932 cumulative IPC: 0.78648 (Simulation time: 0 hr 11 min 5 sec) 
Heartbeat CPU  0 instructions:  309000001 cycles:  315968243 heartbeat IPC: 1.06796 cumulative IPC: 0.78748 (Simulation time: 0 hr 11 min 8 sec) 
Heartbeat CPU  0 instructions:  310000000 cycles:  316901727 heartbeat IPC: 1.07125 cumulative IPC: 0.78847 (Simulation time: 0 hr 11 min 10 sec) 
Heartbeat CPU  0 instructions:  311000000 cycles:  317844013 heartbeat IPC: 1.06125 cumulative IPC: 0.78943 (Simulation time: 0 hr 11 min 12 sec) 
Heartbeat CPU  0 instructions:  312000000 cycles:  318784902 heartbeat IPC: 1.06282 cumulative IPC: 0.79039 (Simulation time: 0 hr 11 min 14 sec) 
Heartbeat CPU  0 instructions:  313000003 cycles:  319721701 heartbeat IPC: 1.06747 cumulative IPC: 0.79136 (Simulation time: 0 hr 11 min 16 sec) 
Heartbeat CPU  0 instructions:  314000001 cycles:  320689586 heartbeat IPC: 1.03318 cumulative IPC: 0.79222 (Simulation time: 0 hr 11 min 19 sec) 
Heartbeat CPU  0 instructions:  315000000 cycles:  321626188 heartbeat IPC: 1.06769 cumulative IPC: 0.79317 (Simulation time: 0 hr 11 min 21 sec) 
Heartbeat CPU  0 instructions:  316000000 cycles:  322563011 heartbeat IPC: 1.06744 cumulative IPC: 0.79412 (Simulation time: 0 hr 11 min 23 sec) 
Heartbeat CPU  0 instructions:  317000003 cycles:  323498928 heartbeat IPC: 1.06847 cumulative IPC: 0.79506 (Simulation time: 0 hr 11 min 25 sec) 
Heartbeat CPU  0 instructions:  318000002 cycles:  324442592 heartbeat IPC: 1.05970 cumulative IPC: 0.79597 (Simulation time: 0 hr 11 min 27 sec) 
Heartbeat CPU  0 instructions:  319000002 cycles:  325372200 heartbeat IPC: 1.07572 cumulative IPC: 0.79692 (Simulation time: 0 hr 11 min 30 sec) 
Heartbeat CPU  0 instructions:  320000000 cycles:  326309635 heartbeat IPC: 1.06674 cumulative IPC: 0.79784 (Simulation time: 0 hr 11 min 32 sec) 
Heartbeat CPU  0 instructions:  321000002 cycles:  327244721 heartbeat IPC: 1.06942 cumulative IPC: 0.79875 (Simulation time: 0 hr 11 min 34 sec) 
Heartbeat CPU  0 instructions:  322000002 cycles:  328194024 heartbeat IPC: 1.05340 cumulative IPC: 0.79962 (Simulation time: 0 hr 11 min 36 sec) 
Heartbeat CPU  0 instructions:  323000002 cycles:  329129357 heartbeat IPC: 1.06914 cumulative IPC: 0.80053 (Simulation time: 0 hr 11 min 38 sec) 
Heartbeat CPU  0 instructions:  324000000 cycles:  330107688 heartbeat IPC: 1.02215 cumulative IPC: 0.80130 (Simulation time: 0 hr 11 min 40 sec) 
Heartbeat CPU  0 instructions:  325000002 cycles:  331035653 heartbeat IPC: 1.07763 cumulative IPC: 0.80222 (Simulation time: 0 hr 11 min 43 sec) 
Heartbeat CPU  0 instructions:  326000000 cycles:  331980673 heartbeat IPC: 1.05818 cumulative IPC: 0.80308 (Simulation time: 0 hr 11 min 45 sec) 
Heartbeat CPU  0 instructions:  327000002 cycles:  332913968 heartbeat IPC: 1.07147 cumulative IPC: 0.80397 (Simulation time: 0 hr 11 min 47 sec) 
Heartbeat CPU  0 instructions:  328000000 cycles:  333850013 heartbeat IPC: 1.06832 cumulative IPC: 0.80484 (Simulation time: 0 hr 11 min 49 sec) 
Heartbeat CPU  0 instructions:  329000001 cycles:  334783527 heartbeat IPC: 1.07122 cumulative IPC: 0.80571 (Simulation time: 0 hr 11 min 51 sec) 
Heartbeat CPU  0 instructions:  330000001 cycles:  335716279 heartbeat IPC: 1.07210 cumulative IPC: 0.80659 (Simulation time: 0 hr 11 min 54 sec) 
Heartbeat CPU  0 instructions:  331000001 cycles:  336657951 heartbeat IPC: 1.06194 cumulative IPC: 0.80743 (Simulation time: 0 hr 11 min 56 sec) 
Heartbeat CPU  0 instructions:  332000000 cycles:  337589000 heartbeat IPC: 1.07406 cumulative IPC: 0.80829 (Simulation time: 0 hr 11 min 58 sec) 
Heartbeat CPU  0 instructions:  333000001 cycles:  338525320 heartbeat IPC: 1.06801 cumulative IPC: 0.80914 (Simulation time: 0 hr 12 min 1 sec) 
Heartbeat CPU  0 instructions:  334000003 cycles:  339454725 heartbeat IPC: 1.07596 cumulative IPC: 0.80999 (Simulation time: 0 hr 12 min 3 sec) 
Heartbeat CPU  0 instructions:  335000002 cycles:  340433589 heartbeat IPC: 1.02159 cumulative IPC: 0.81071 (Simulation time: 0 hr 12 min 5 sec) 
Heartbeat CPU  0 instructions:  336000000 cycles:  341355187 heartbeat IPC: 1.08507 cumulative IPC: 0.81158 (Simulation time: 0 hr 12 min 7 sec) 
Heartbeat CPU  0 instructions:  337000002 cycles:  342299528 heartbeat IPC: 1.05894 cumulative IPC: 0.81238 (Simulation time: 0 hr 12 min 10 sec) 
Heartbeat CPU  0 instructions:  338000002 cycles:  343229578 heartbeat IPC: 1.07521 cumulative IPC: 0.81321 (Simulation time: 0 hr 12 min 12 sec) 
Heartbeat CPU  0 instructions:  339000002 cycles:  344168290 heartbeat IPC: 1.06529 cumulative IPC: 0.81402 (Simulation time: 0 hr 12 min 14 sec) 
Heartbeat CPU  0 instructions:  340000000 cycles:  345102539 heartbeat IPC: 1.07038 cumulative IPC: 0.81483 (Simulation time: 0 hr 12 min 16 sec) 
Heartbeat CPU  0 instructions:  341000001 cycles:  346043310 heartbeat IPC: 1.06296 cumulative IPC: 0.81562 (Simulation time: 0 hr 12 min 18 sec) 
Heartbeat CPU  0 instructions:  342000003 cycles:  346976199 heartbeat IPC: 1.07194 cumulative IPC: 0.81643 (Simulation time: 0 hr 12 min 20 sec) 
Heartbeat CPU  0 instructions:  343000003 cycles:  347910559 heartbeat IPC: 1.07025 cumulative IPC: 0.81723 (Simulation time: 0 hr 12 min 23 sec) 
Heartbeat CPU  0 instructions:  344000000 cycles:  348839430 heartbeat IPC: 1.07657 cumulative IPC: 0.81803 (Simulation time: 0 hr 12 min 25 sec) 
Heartbeat CPU  0 instructions:  345000001 cycles:  349795819 heartbeat IPC: 1.04560 cumulative IPC: 0.81876 (Simulation time: 0 hr 12 min 27 sec) 
Heartbeat CPU  0 instructions:  346000003 cycles:  350732831 heartbeat IPC: 1.06722 cumulative IPC: 0.81954 (Simulation time: 0 hr 12 min 29 sec) 
Heartbeat CPU  0 instructions:  347000003 cycles:  351667248 heartbeat IPC: 1.07019 cumulative IPC: 0.82032 (Simulation time: 0 hr 12 min 31 sec) 
Heartbeat CPU  0 instructions:  348000000 cycles:  352607229 heartbeat IPC: 1.06385 cumulative IPC: 0.82107 (Simulation time: 0 hr 12 min 34 sec) 
Heartbeat CPU  0 instructions:  349000000 cycles:  353534698 heartbeat IPC: 1.07820 cumulative IPC: 0.82186 (Simulation time: 0 hr 12 min 36 sec) 
Heartbeat CPU  0 instructions:  350000003 cycles:  354468625 heartbeat IPC: 1.07075 cumulative IPC: 0.82263 (Simulation time: 0 hr 12 min 38 sec) 
Heartbeat CPU  0 instructions:  351000002 cycles:  355408355 heartbeat IPC: 1.06413 cumulative IPC: 0.82337 (Simulation time: 0 hr 12 min 40 sec) 
Heartbeat CPU  0 instructions:  352000000 cycles:  356348441 heartbeat IPC: 1.06373 cumulative IPC: 0.82411 (Simulation time: 0 hr 12 min 42 sec) 
Heartbeat CPU  0 instructions:  353000003 cycles:  357283070 heartbeat IPC: 1.06995 cumulative IPC: 0.82486 (Simulation time: 0 hr 12 min 45 sec) 
Heartbeat CPU  0 instructions:  354000003 cycles:  358223716 heartbeat IPC: 1.06310 cumulative IPC: 0.82559 (Simulation time: 0 hr 12 min 47 sec) 
Heartbeat CPU  0 instructions:  355000000 cycles:  359151870 heartbeat IPC: 1.07740 cumulative IPC: 0.82634 (Simulation time: 0 hr 12 min 49 sec) 
Heartbeat CPU  0 instructions:  356000000 cycles:  360126566 heartbeat IPC: 1.02596 cumulative IPC: 0.82697 (Simulation time: 0 hr 12 min 51 sec) 
Heartbeat CPU  0 instructions:  357000001 cycles:  361056075 heartbeat IPC: 1.07584 cumulative IPC: 0.82772 (Simulation time: 0 hr 12 min 53 sec) 
Heartbeat CPU  0 instructions:  358000003 cycles:  361986701 heartbeat IPC: 1.07455 cumulative IPC: 0.82845 (Simulation time: 0 hr 12 min 55 sec) 
Heartbeat CPU  0 instructions:  359000000 cycles:  362922847 heartbeat IPC: 1.06821 cumulative IPC: 0.82917 (Simulation time: 0 hr 12 min 58 sec) 
Heartbeat CPU  0 instructions:  360000000 cycles:  363863771 heartbeat IPC: 1.06279 cumulative IPC: 0.82987 (Simulation time: 0 hr 13 min 0 sec) 
Heartbeat CPU  0 instructions:  361000002 cycles:  364801582 heartbeat IPC: 1.06632 cumulative IPC: 0.83058 (Simulation time: 0 hr 13 min 2 sec) 
Heartbeat CPU  0 instructions:  362000002 cycles:  365731216 heartbeat IPC: 1.07569 cumulative IPC: 0.83130 (Simulation time: 0 hr 13 min 4 sec) 
Heartbeat CPU  0 instructions:  363000002 cycles:  366672787 heartbeat IPC: 1.06205 cumulative IPC: 0.83199 (Simulation time: 0 hr 13 min 6 sec) 
Heartbeat CPU  0 instructions:  364000000 cycles:  367606371 heartbeat IPC: 1.07114 cumulative IPC: 0.83269 (Simulation time: 0 hr 13 min 9 sec) 
Heartbeat CPU  0 instructions:  365000001 cycles:  368546926 heartbeat IPC: 1.06320 cumulative IPC: 0.83338 (Simulation time: 0 hr 13 min 11 sec) 
Heartbeat CPU  0 instructions:  366000001 cycles:  369512882 heartbeat IPC: 1.03524 cumulative IPC: 0.83399 (Simulation time: 0 hr 13 min 13 sec) 
Heartbeat CPU  0 instructions:  367000003 cycles:  370455257 heartbeat IPC: 1.06115 cumulative IPC: 0.83466 (Simulation time: 0 hr 13 min 15 sec) 
Heartbeat CPU  0 instructions:  368000000 cycles:  371387759 heartbeat IPC: 1.07238 cumulative IPC: 0.83535 (Simulation time: 0 hr 13 min 17 sec) 
Heartbeat CPU  0 instructions:  369000001 cycles:  372334518 heartbeat IPC: 1.05624 cumulative IPC: 0.83600 (Simulation time: 0 hr 13 min 19 sec) 
Heartbeat CPU  0 instructions:  370000002 cycles:  373262089 heartbeat IPC: 1.07809 cumulative IPC: 0.83669 (Simulation time: 0 hr 13 min 22 sec) 
Heartbeat CPU  0 instructions:  371000002 cycles:  374205974 heartbeat IPC: 1.05945 cumulative IPC: 0.83734 (Simulation time: 0 hr 13 min 24 sec) 
Heartbeat CPU  0 instructions:  372000000 cycles:  375133678 heartbeat IPC: 1.07793 cumulative IPC: 0.83803 (Simulation time: 0 hr 13 min 26 sec) 
Heartbeat CPU  0 instructions:  373000002 cycles:  376070859 heartbeat IPC: 1.06703 cumulative IPC: 0.83869 (Simulation time: 0 hr 13 min 28 sec) 
Heartbeat CPU  0 instructions:  374000001 cycles:  377005466 heartbeat IPC: 1.06997 cumulative IPC: 0.83935 (Simulation time: 0 hr 13 min 30 sec) 
Heartbeat CPU  0 instructions:  375000000 cycles:  377946846 heartbeat IPC: 1.06227 cumulative IPC: 0.83999 (Simulation time: 0 hr 13 min 33 sec) 
Heartbeat CPU  0 instructions:  376000000 cycles:  378891625 heartbeat IPC: 1.05845 cumulative IPC: 0.84062 (Simulation time: 0 hr 13 min 35 sec) 
Heartbeat CPU  0 instructions:  377000002 cycles:  379858901 heartbeat IPC: 1.03383 cumulative IPC: 0.84119 (Simulation time: 0 hr 13 min 37 sec) 
Heartbeat CPU  0 instructions:  378000000 cycles:  380802269 heartbeat IPC: 1.06003 cumulative IPC: 0.84182 (Simulation time: 0 hr 13 min 39 sec) 
Heartbeat CPU  0 instructions:  379000000 cycles:  381734548 heartbeat IPC: 1.07264 cumulative IPC: 0.84246 (Simulation time: 0 hr 13 min 41 sec) 
Heartbeat CPU  0 instructions:  380000000 cycles:  382679792 heartbeat IPC: 1.05793 cumulative IPC: 0.84308 (Simulation time: 0 hr 13 min 43 sec) 
Heartbeat CPU  0 instructions:  381000002 cycles:  383615974 heartbeat IPC: 1.06817 cumulative IPC: 0.84371 (Simulation time: 0 hr 13 min 46 sec) 
Heartbeat CPU  0 instructions:  382000000 cycles:  384553650 heartbeat IPC: 1.06646 cumulative IPC: 0.84434 (Simulation time: 0 hr 13 min 48 sec) 
Heartbeat CPU  0 instructions:  383000000 cycles:  385488596 heartbeat IPC: 1.06958 cumulative IPC: 0.84496 (Simulation time: 0 hr 13 min 50 sec) 
Heartbeat CPU  0 instructions:  384000000 cycles:  386435124 heartbeat IPC: 1.05649 cumulative IPC: 0.84556 (Simulation time: 0 hr 13 min 52 sec) 
Heartbeat CPU  0 instructions:  385000001 cycles:  387363828 heartbeat IPC: 1.07677 cumulative IPC: 0.84620 (Simulation time: 0 hr 13 min 54 sec) 
Heartbeat CPU  0 instructions:  386000002 cycles:  388316751 heartbeat IPC: 1.04940 cumulative IPC: 0.84677 (Simulation time: 0 hr 13 min 57 sec) 
Heartbeat CPU  0 instructions:  387000000 cycles:  389282283 heartbeat IPC: 1.03570 cumulative IPC: 0.84731 (Simulation time: 0 hr 13 min 59 sec) 
Heartbeat CPU  0 instructions:  388000000 cycles:  390213481 heartbeat IPC: 1.07389 cumulative IPC: 0.84793 (Simulation time: 0 hr 14 min 1 sec) 
Heartbeat CPU  0 instructions:  389000003 cycles:  391145451 heartbeat IPC: 1.07300 cumulative IPC: 0.84855 (Simulation time: 0 hr 14 min 3 sec) 
Heartbeat CPU  0 instructions:  390000003 cycles:  392084123 heartbeat IPC: 1.06533 cumulative IPC: 0.84914 (Simulation time: 0 hr 14 min 5 sec) 
Heartbeat CPU  0 instructions:  391000002 cycles:  393030122 heartbeat IPC: 1.05708 cumulative IPC: 0.84972 (Simulation time: 0 hr 14 min 8 sec) 
Heartbeat CPU  0 instructions:  392000000 cycles:  393964699 heartbeat IPC: 1.07000 cumulative IPC: 0.85032 (Simulation time: 0 hr 14 min 10 sec) 
Heartbeat CPU  0 instructions:  393000003 cycles:  394903135 heartbeat IPC: 1.06561 cumulative IPC: 0.85090 (Simulation time: 0 hr 14 min 12 sec) 
Heartbeat CPU  0 instructions:  394000003 cycles:  395829071 heartbeat IPC: 1.07999 cumulative IPC: 0.85152 (Simulation time: 0 hr 14 min 14 sec) 
Heartbeat CPU  0 instructions:  395000003 cycles:  396767876 heartbeat IPC: 1.06518 cumulative IPC: 0.85210 (Simulation time: 0 hr 14 min 16 sec) 
Heartbeat CPU  0 instructions:  396000000 cycles:  397711168 heartbeat IPC: 1.06011 cumulative IPC: 0.85266 (Simulation time: 0 hr 14 min 18 sec) 
Heartbeat CPU  0 instructions:  397000001 cycles:  398657501 heartbeat IPC: 1.05671 cumulative IPC: 0.85322 (Simulation time: 0 hr 14 min 21 sec) 
Heartbeat CPU  0 instructions:  398000001 cycles:  401041882 heartbeat IPC: 0.41940 cumulative IPC: 0.85027 (Simulation time: 0 hr 14 min 23 sec) 
Heartbeat CPU  0 instructions:  399000000 cycles:  402036775 heartbeat IPC: 1.00513 cumulative IPC: 0.85070 (Simulation time: 0 hr 14 min 25 sec) 
Heartbeat CPU  0 instructions:  400000000 cycles:  403054601 heartbeat IPC: 0.98249 cumulative IPC: 0.85109 (Simulation time: 0 hr 14 min 28 sec) 
Heartbeat CPU  0 instructions:  401000001 cycles:  404073547 heartbeat IPC: 0.98141 cumulative IPC: 0.85146 (Simulation time: 0 hr 14 min 30 sec) 
Heartbeat CPU  0 instructions:  402000003 cycles:  405091781 heartbeat IPC: 0.98209 cumulative IPC: 0.85184 (Simulation time: 0 hr 14 min 32 sec) 
Heartbeat CPU  0 instructions:  403000000 cycles:  406103571 heartbeat IPC: 0.98834 cumulative IPC: 0.85222 (Simulation time: 0 hr 14 min 35 sec) 
Heartbeat CPU  0 instructions:  404000000 cycles:  407144828 heartbeat IPC: 0.96038 cumulative IPC: 0.85254 (Simulation time: 0 hr 14 min 37 sec) 
Heartbeat CPU  0 instructions:  405000003 cycles:  408213002 heartbeat IPC: 0.93618 cumulative IPC: 0.85279 (Simulation time: 0 hr 14 min 39 sec) 
Heartbeat CPU  0 instructions:  406000003 cycles:  409302612 heartbeat IPC: 0.91776 cumulative IPC: 0.85299 (Simulation time: 0 hr 14 min 42 sec) 
Heartbeat CPU  0 instructions:  407000000 cycles:  410390871 heartbeat IPC: 0.91890 cumulative IPC: 0.85319 (Simulation time: 0 hr 14 min 44 sec) 
Heartbeat CPU  0 instructions:  408000000 cycles:  411493179 heartbeat IPC: 0.90719 cumulative IPC: 0.85335 (Simulation time: 0 hr 14 min 46 sec) 
Heartbeat CPU  0 instructions:  409000002 cycles:  412551404 heartbeat IPC: 0.94498 cumulative IPC: 0.85362 (Simulation time: 0 hr 14 min 49 sec) 
Heartbeat CPU  0 instructions:  410000002 cycles:  413565163 heartbeat IPC: 0.98643 cumulative IPC: 0.85399 (Simulation time: 0 hr 14 min 51 sec) 
Heartbeat CPU  0 instructions:  411000000 cycles:  414570131 heartbeat IPC: 0.99505 cumulative IPC: 0.85438 (Simulation time: 0 hr 14 min 53 sec) 
Heartbeat CPU  0 instructions:  412000000 cycles:  415582349 heartbeat IPC: 0.98793 cumulative IPC: 0.85475 (Simulation time: 0 hr 14 min 55 sec) 
Heartbeat CPU  0 instructions:  413000001 cycles:  416595511 heartbeat IPC: 0.98701 cumulative IPC: 0.85512 (Simulation time: 0 hr 14 min 58 sec) 
Heartbeat CPU  0 instructions:  414000000 cycles:  417613906 heartbeat IPC: 0.98194 cumulative IPC: 0.85547 (Simulation time: 0 hr 15 min 0 sec) 
Heartbeat CPU  0 instructions:  415000002 cycles:  418630306 heartbeat IPC: 0.98387 cumulative IPC: 0.85582 (Simulation time: 0 hr 15 min 2 sec) 
Heartbeat CPU  0 instructions:  416000000 cycles:  419678348 heartbeat IPC: 0.95416 cumulative IPC: 0.85610 (Simulation time: 0 hr 15 min 5 sec) 
Heartbeat CPU  0 instructions:  417000001 cycles:  420729592 heartbeat IPC: 0.95125 cumulative IPC: 0.85637 (Simulation time: 0 hr 15 min 7 sec) 
Heartbeat CPU  0 instructions:  418000002 cycles:  421799221 heartbeat IPC: 0.93490 cumulative IPC: 0.85660 (Simulation time: 0 hr 15 min 9 sec) 
Heartbeat CPU  0 instructions:  419000003 cycles:  422835913 heartbeat IPC: 0.96461 cumulative IPC: 0.85690 (Simulation time: 0 hr 15 min 11 sec) 
Heartbeat CPU  0 instructions:  420000000 cycles:  423893294 heartbeat IPC: 0.94573 cumulative IPC: 0.85715 (Simulation time: 0 hr 15 min 14 sec) 
Heartbeat CPU  0 instructions:  421000002 cycles:  424916517 heartbeat IPC: 0.97731 cumulative IPC: 0.85748 (Simulation time: 0 hr 15 min 16 sec) 
Heartbeat CPU  0 instructions:  422000000 cycles:  425960622 heartbeat IPC: 0.95776 cumulative IPC: 0.85776 (Simulation time: 0 hr 15 min 18 sec) 
Heartbeat CPU  0 instructions:  423000003 cycles:  426997336 heartbeat IPC: 0.96459 cumulative IPC: 0.85805 (Simulation time: 0 hr 15 min 21 sec) 
Heartbeat CPU  0 instructions:  424000000 cycles:  428014873 heartbeat IPC: 0.98276 cumulative IPC: 0.85839 (Simulation time: 0 hr 15 min 23 sec) 
Heartbeat CPU  0 instructions:  425000000 cycles:  429047038 heartbeat IPC: 0.96884 cumulative IPC: 0.85869 (Simulation time: 0 hr 15 min 25 sec) 
Heartbeat CPU  0 instructions:  426000000 cycles:  430080302 heartbeat IPC: 0.96781 cumulative IPC: 0.85899 (Simulation time: 0 hr 15 min 28 sec) 
Heartbeat CPU  0 instructions:  427000003 cycles:  431121208 heartbeat IPC: 0.96070 cumulative IPC: 0.85927 (Simulation time: 0 hr 15 min 30 sec) 
Heartbeat CPU  0 instructions:  428000000 cycles:  432176993 heartbeat IPC: 0.94716 cumulative IPC: 0.85951 (Simulation time: 0 hr 15 min 32 sec) 
Heartbeat CPU  0 instructions:  429000000 cycles:  433216577 heartbeat IPC: 0.96192 cumulative IPC: 0.85979 (Simulation time: 0 hr 15 min 34 sec) 
Heartbeat CPU  0 instructions:  430000003 cycles:  434245451 heartbeat IPC: 0.97194 cumulative IPC: 0.86009 (Simulation time: 0 hr 15 min 37 sec) 
Heartbeat CPU  0 instructions:  431000003 cycles:  435282850 heartbeat IPC: 0.96395 cumulative IPC: 0.86037 (Simulation time: 0 hr 15 min 39 sec) 
Heartbeat CPU  0 instructions:  432000000 cycles:  436341596 heartbeat IPC: 0.94451 cumulative IPC: 0.86060 (Simulation time: 0 hr 15 min 41 sec) 
Heartbeat CPU  0 instructions:  433000001 cycles:  437362886 heartbeat IPC: 0.97915 cumulative IPC: 0.86091 (Simulation time: 0 hr 15 min 44 sec) 
Heartbeat CPU  0 instructions:  434000003 cycles:  438378433 heartbeat IPC: 0.98469 cumulative IPC: 0.86124 (Simulation time: 0 hr 15 min 46 sec) 
Heartbeat CPU  0 instructions:  435000001 cycles:  439412964 heartbeat IPC: 0.96662 cumulative IPC: 0.86152 (Simulation time: 0 hr 15 min 48 sec) 
Heartbeat CPU  0 instructions:  436000000 cycles:  440456997 heartbeat IPC: 0.95782 cumulative IPC: 0.86177 (Simulation time: 0 hr 15 min 51 sec) 
Heartbeat CPU  0 instructions:  437000000 cycles:  441485819 heartbeat IPC: 0.97199 cumulative IPC: 0.86206 (Simulation time: 0 hr 15 min 53 sec) 
Heartbeat CPU  0 instructions:  438000001 cycles:  442522773 heartbeat IPC: 0.96436 cumulative IPC: 0.86233 (Simulation time: 0 hr 15 min 55 sec) 
Heartbeat CPU  0 instructions:  439000002 cycles:  443544384 heartbeat IPC: 0.97885 cumulative IPC: 0.86264 (Simulation time: 0 hr 15 min 57 sec) 
Heartbeat CPU  0 instructions:  440000000 cycles:  444588859 heartbeat IPC: 0.95742 cumulative IPC: 0.86289 (Simulation time: 0 hr 16 min 0 sec) 
Heartbeat CPU  0 instructions:  441000001 cycles:  445604655 heartbeat IPC: 0.98445 cumulative IPC: 0.86320 (Simulation time: 0 hr 16 min 2 sec) 
Heartbeat CPU  0 instructions:  442000001 cycles:  446641674 heartbeat IPC: 0.96430 cumulative IPC: 0.86347 (Simulation time: 0 hr 16 min 4 sec) 
Heartbeat CPU  0 instructions:  443000002 cycles:  447661076 heartbeat IPC: 0.98097 cumulative IPC: 0.86377 (Simulation time: 0 hr 16 min 6 sec) 
Heartbeat CPU  0 instructions:  444000000 cycles:  448698251 heartbeat IPC: 0.96416 cumulative IPC: 0.86403 (Simulation time: 0 hr 16 min 9 sec) 
Heartbeat CPU  0 instructions:  445000001 cycles:  449752807 heartbeat IPC: 0.94827 cumulative IPC: 0.86425 (Simulation time: 0 hr 16 min 11 sec) 
Heartbeat CPU  0 instructions:  446000001 cycles:  450779042 heartbeat IPC: 0.97444 cumulative IPC: 0.86453 (Simulation time: 0 hr 16 min 13 sec) 
Heartbeat CPU  0 instructions:  447000002 cycles:  451819801 heartbeat IPC: 0.96084 cumulative IPC: 0.86478 (Simulation time: 0 hr 16 min 16 sec) 
Heartbeat CPU  0 instructions:  448000000 cycles:  452844597 heartbeat IPC: 0.97580 cumulative IPC: 0.86507 (Simulation time: 0 hr 16 min 18 sec) 
Heartbeat CPU  0 instructions:  449000003 cycles:  453861484 heartbeat IPC: 0.98340 cumulative IPC: 0.86537 (Simulation time: 0 hr 16 min 20 sec) 
Heartbeat CPU  0 instructions:  450000002 cycles:  454900792 heartbeat IPC: 0.96218 cumulative IPC: 0.86561 (Simulation time: 0 hr 16 min 22 sec) 
Heartbeat CPU  0 instructions:  451000000 cycles:  455941020 heartbeat IPC: 0.96133 cumulative IPC: 0.86586 (Simulation time: 0 hr 16 min 25 sec) 
Heartbeat CPU  0 instructions:  452000000 cycles:  456964137 heartbeat IPC: 0.97741 cumulative IPC: 0.86614 (Simulation time: 0 hr 16 min 27 sec) 
Heartbeat CPU  0 instructions:  453000003 cycles:  458001687 heartbeat IPC: 0.96381 cumulative IPC: 0.86639 (Simulation time: 0 hr 16 min 29 sec) 
Heartbeat CPU  0 instructions:  454000000 cycles:  459044646 heartbeat IPC: 0.95881 cumulative IPC: 0.86663 (Simulation time: 0 hr 16 min 32 sec) 
Heartbeat CPU  0 instructions:  455000002 cycles:  460085457 heartbeat IPC: 0.96079 cumulative IPC: 0.86686 (Simulation time: 0 hr 16 min 34 sec) 
Heartbeat CPU  0 instructions:  456000000 cycles:  461123217 heartbeat IPC: 0.96361 cumulative IPC: 0.86711 (Simulation time: 0 hr 16 min 36 sec) 
Heartbeat CPU  0 instructions:  457000000 cycles:  462153614 heartbeat IPC: 0.97050 cumulative IPC: 0.86737 (Simulation time: 0 hr 16 min 39 sec) 
Heartbeat CPU  0 instructions:  458000002 cycles:  463199467 heartbeat IPC: 0.95616 cumulative IPC: 0.86759 (Simulation time: 0 hr 16 min 41 sec) 
Heartbeat CPU  0 instructions:  459000003 cycles:  464233666 heartbeat IPC: 0.96693 cumulative IPC: 0.86784 (Simulation time: 0 hr 16 min 43 sec) 
Heartbeat CPU  0 instructions:  460000000 cycles:  465604604 heartbeat IPC: 0.72943 cumulative IPC: 0.86738 (Simulation time: 0 hr 16 min 46 sec) 
Heartbeat CPU  0 instructions:  461000000 cycles:  467589727 heartbeat IPC: 0.50375 cumulative IPC: 0.86565 (Simulation time: 0 hr 16 min 48 sec) 
Heartbeat CPU  0 instructions:  462000000 cycles:  469537395 heartbeat IPC: 0.51343 cumulative IPC: 0.86402 (Simulation time: 0 hr 16 min 51 sec) 
Heartbeat CPU  0 instructions:  463000001 cycles:  471281592 heartbeat IPC: 0.57333 cumulative IPC: 0.86281 (Simulation time: 0 hr 16 min 53 sec) 
Heartbeat CPU  0 instructions:  464000000 cycles:  472961928 heartbeat IPC: 0.59512 cumulative IPC: 0.86175 (Simulation time: 0 hr 16 min 56 sec) 
Heartbeat CPU  0 instructions:  465000002 cycles:  474681966 heartbeat IPC: 0.58138 cumulative IPC: 0.86061 (Simulation time: 0 hr 16 min 58 sec) 
Heartbeat CPU  0 instructions:  466000000 cycles:  476394247 heartbeat IPC: 0.58402 cumulative IPC: 0.85950 (Simulation time: 0 hr 17 min 1 sec) 
Heartbeat CPU  0 instructions:  467000001 cycles:  478154536 heartbeat IPC: 0.56809 cumulative IPC: 0.85830 (Simulation time: 0 hr 17 min 3 sec) 
Heartbeat CPU  0 instructions:  468000000 cycles:  479927088 heartbeat IPC: 0.56416 cumulative IPC: 0.85708 (Simulation time: 0 hr 17 min 5 sec) 
Heartbeat CPU  0 instructions:  469000003 cycles:  481705187 heartbeat IPC: 0.56240 cumulative IPC: 0.85587 (Simulation time: 0 hr 17 min 8 sec) 
Heartbeat CPU  0 instructions:  470000001 cycles:  483464524 heartbeat IPC: 0.56839 cumulative IPC: 0.85470 (Simulation time: 0 hr 17 min 10 sec) 
Heartbeat CPU  0 instructions:  471000003 cycles:  485167510 heartbeat IPC: 0.58721 cumulative IPC: 0.85365 (Simulation time: 0 hr 17 min 13 sec) 
Heartbeat CPU  0 instructions:  472000000 cycles:  486861673 heartbeat IPC: 0.59026 cumulative IPC: 0.85263 (Simulation time: 0 hr 17 min 15 sec) 
Heartbeat CPU  0 instructions:  473000002 cycles:  488571536 heartbeat IPC: 0.58484 cumulative IPC: 0.85158 (Simulation time: 0 hr 17 min 18 sec) 
Heartbeat CPU  0 instructions:  474000001 cycles:  490228330 heartbeat IPC: 0.60357 cumulative IPC: 0.85065 (Simulation time: 0 hr 17 min 20 sec) 
Heartbeat CPU  0 instructions:  475000001 cycles:  491873738 heartbeat IPC: 0.60775 cumulative IPC: 0.84974 (Simulation time: 0 hr 17 min 23 sec) 
Heartbeat CPU  0 instructions:  476000000 cycles:  493566736 heartbeat IPC: 0.59067 cumulative IPC: 0.84875 (Simulation time: 0 hr 17 min 25 sec) 
Heartbeat CPU  0 instructions:  477000002 cycles:  495305799 heartbeat IPC: 0.57502 cumulative IPC: 0.84768 (Simulation time: 0 hr 17 min 28 sec) 
Heartbeat CPU  0 instructions:  478000000 cycles:  497067808 heartbeat IPC: 0.56753 cumulative IPC: 0.84658 (Simulation time: 0 hr 17 min 30 sec) 
Heartbeat CPU  0 instructions:  479000002 cycles:  498860736 heartbeat IPC: 0.55775 cumulative IPC: 0.84542 (Simulation time: 0 hr 17 min 33 sec) 
Heartbeat CPU  0 instructions:  480000000 cycles:  500619719 heartbeat IPC: 0.56851 cumulative IPC: 0.84434 (Simulation time: 0 hr 17 min 35 sec) 
Heartbeat CPU  0 instructions:  481000003 cycles:  502394510 heartbeat IPC: 0.56345 cumulative IPC: 0.84324 (Simulation time: 0 hr 17 min 38 sec) 
Heartbeat CPU  0 instructions:  482000003 cycles:  504152863 heartbeat IPC: 0.56871 cumulative IPC: 0.84217 (Simulation time: 0 hr 17 min 40 sec) 
Heartbeat CPU  0 instructions:  483000003 cycles:  505902131 heartbeat IPC: 0.57167 cumulative IPC: 0.84113 (Simulation time: 0 hr 17 min 43 sec) 
Heartbeat CPU  0 instructions:  484000000 cycles:  507650959 heartbeat IPC: 0.57181 cumulative IPC: 0.84010 (Simulation time: 0 hr 17 min 45 sec) 
Heartbeat CPU  0 instructions:  485000002 cycles:  509374574 heartbeat IPC: 0.58018 cumulative IPC: 0.83913 (Simulation time: 0 hr 17 min 47 sec) 
Heartbeat CPU  0 instructions:  486000000 cycles:  511110314 heartbeat IPC: 0.57612 cumulative IPC: 0.83813 (Simulation time: 0 hr 17 min 50 sec) 
Heartbeat CPU  0 instructions:  487000000 cycles:  512747403 heartbeat IPC: 0.61084 cumulative IPC: 0.83733 (Simulation time: 0 hr 17 min 53 sec) 
Heartbeat CPU  0 instructions:  488000000 cycles:  514360753 heartbeat IPC: 0.61983 cumulative IPC: 0.83657 (Simulation time: 0 hr 17 min 55 sec) 
Heartbeat CPU  0 instructions:  489000000 cycles:  515956634 heartbeat IPC: 0.62661 cumulative IPC: 0.83585 (Simulation time: 0 hr 17 min 58 sec) 
Heartbeat CPU  0 instructions:  490000003 cycles:  517531865 heartbeat IPC: 0.63483 cumulative IPC: 0.83517 (Simulation time: 0 hr 18 min 1 sec) 
Heartbeat CPU  0 instructions:  491000003 cycles:  519053380 heartbeat IPC: 0.65724 cumulative IPC: 0.83460 (Simulation time: 0 hr 18 min 3 sec) 
Heartbeat CPU  0 instructions:  492000000 cycles:  520542870 heartbeat IPC: 0.67137 cumulative IPC: 0.83408 (Simulation time: 0 hr 18 min 6 sec) 
Heartbeat CPU  0 instructions:  493000001 cycles:  522058024 heartbeat IPC: 0.66000 cumulative IPC: 0.83352 (Simulation time: 0 hr 18 min 9 sec) 
Heartbeat CPU  0 instructions:  494000000 cycles:  523597134 heartbeat IPC: 0.64973 cumulative IPC: 0.83292 (Simulation time: 0 hr 18 min 11 sec) 
Heartbeat CPU  0 instructions:  495000000 cycles:  525134654 heartbeat IPC: 0.65040 cumulative IPC: 0.83233 (Simulation time: 0 hr 18 min 14 sec) 
Heartbeat CPU  0 instructions:  496000000 cycles:  526713749 heartbeat IPC: 0.63327 cumulative IPC: 0.83167 (Simulation time: 0 hr 18 min 17 sec) 
Heartbeat CPU  0 instructions:  497000002 cycles:  528272629 heartbeat IPC: 0.64149 cumulative IPC: 0.83105 (Simulation time: 0 hr 18 min 19 sec) 
Heartbeat CPU  0 instructions:  498000001 cycles:  529827760 heartbeat IPC: 0.64303 cumulative IPC: 0.83044 (Simulation time: 0 hr 18 min 22 sec) 
Heartbeat CPU  0 instructions:  499000000 cycles:  531394909 heartbeat IPC: 0.63810 cumulative IPC: 0.82981 (Simulation time: 0 hr 18 min 25 sec) 
Heartbeat CPU  0 instructions:  500000000 cycles:  532908700 heartbeat IPC: 0.66059 cumulative IPC: 0.82928 (Simulation time: 0 hr 18 min 27 sec) 
Heartbeat CPU  0 instructions:  501000003 cycles:  534461979 heartbeat IPC: 0.64380 cumulative IPC: 0.82869 (Simulation time: 0 hr 18 min 30 sec) 
Heartbeat CPU  0 instructions:  502000002 cycles:  536063901 heartbeat IPC: 0.62425 cumulative IPC: 0.82801 (Simulation time: 0 hr 18 min 33 sec) 
Heartbeat CPU  0 instructions:  503000000 cycles:  537669698 heartbeat IPC: 0.62274 cumulative IPC: 0.82733 (Simulation time: 0 hr 18 min 35 sec) 
Heartbeat CPU  0 instructions:  504000000 cycles:  539291142 heartbeat IPC: 0.61673 cumulative IPC: 0.82664 (Simulation time: 0 hr 18 min 38 sec) 
Heartbeat CPU  0 instructions:  505000000 cycles:  540890812 heartbeat IPC: 0.62513 cumulative IPC: 0.82598 (Simulation time: 0 hr 18 min 41 sec) 
Heartbeat CPU  0 instructions:  506000003 cycles:  542433573 heartbeat IPC: 0.64819 cumulative IPC: 0.82542 (Simulation time: 0 hr 18 min 44 sec) 
Heartbeat CPU  0 instructions:  507000002 cycles:  544003010 heartbeat IPC: 0.63717 cumulative IPC: 0.82482 (Simulation time: 0 hr 18 min 46 sec) 
Heartbeat CPU  0 instructions:  508000000 cycles:  545629096 heartbeat IPC: 0.61497 cumulative IPC: 0.82413 (Simulation time: 0 hr 18 min 49 sec) 
Heartbeat CPU  0 instructions:  509000001 cycles:  547257638 heartbeat IPC: 0.61405 cumulative IPC: 0.82344 (Simulation time: 0 hr 18 min 52 sec) 
Heartbeat CPU  0 instructions:  510000000 cycles:  548863492 heartbeat IPC: 0.62272 cumulative IPC: 0.82280 (Simulation time: 0 hr 18 min 54 sec) 
Heartbeat CPU  0 instructions:  511000001 cycles:  550479586 heartbeat IPC: 0.61878 cumulative IPC: 0.82214 (Simulation time: 0 hr 18 min 57 sec) 
Heartbeat CPU  0 instructions:  512000000 cycles:  552006871 heartbeat IPC: 0.65476 cumulative IPC: 0.82163 (Simulation time: 0 hr 19 min 0 sec) 
Heartbeat CPU  0 instructions:  513000000 cycles:  553560899 heartbeat IPC: 0.64349 cumulative IPC: 0.82108 (Simulation time: 0 hr 19 min 2 sec) 
Heartbeat CPU  0 instructions:  514000001 cycles:  555110630 heartbeat IPC: 0.64527 cumulative IPC: 0.82054 (Simulation time: 0 hr 19 min 5 sec) 
Heartbeat CPU  0 instructions:  515000003 cycles:  556667212 heartbeat IPC: 0.64243 cumulative IPC: 0.81999 (Simulation time: 0 hr 19 min 8 sec) 
Heartbeat CPU  0 instructions:  516000000 cycles:  558225662 heartbeat IPC: 0.64166 cumulative IPC: 0.81944 (Simulation time: 0 hr 19 min 10 sec) 
Heartbeat CPU  0 instructions:  517000001 cycles:  559798046 heartbeat IPC: 0.63598 cumulative IPC: 0.81888 (Simulation time: 0 hr 19 min 13 sec) 
Heartbeat CPU  0 instructions:  518000001 cycles:  561403975 heartbeat IPC: 0.62269 cumulative IPC: 0.81826 (Simulation time: 0 hr 19 min 16 sec) 
Heartbeat CPU  0 instructions:  519000000 cycles:  563016957 heartbeat IPC: 0.61997 cumulative IPC: 0.81764 (Simulation time: 0 hr 19 min 18 sec) 
Heartbeat CPU  0 instructions:  520000000 cycles:  564593993 heartbeat IPC: 0.63410 cumulative IPC: 0.81707 (Simulation time: 0 hr 19 min 21 sec) 
Heartbeat CPU  0 instructions:  521000002 cycles:  566139647 heartbeat IPC: 0.64698 cumulative IPC: 0.81656 (Simulation time: 0 hr 19 min 24 sec) 
Heartbeat CPU  0 instructions:  522000002 cycles:  567668221 heartbeat IPC: 0.65420 cumulative IPC: 0.81608 (Simulation time: 0 hr 19 min 26 sec) 
Heartbeat CPU  0 instructions:  523000001 cycles:  569187268 heartbeat IPC: 0.65831 cumulative IPC: 0.81562 (Simulation time: 0 hr 19 min 29 sec) 
Heartbeat CPU  0 instructions:  524000000 cycles:  570560122 heartbeat IPC: 0.72841 cumulative IPC: 0.81539 (Simulation time: 0 hr 19 min 32 sec) 
Heartbeat CPU  0 instructions:  525000000 cycles:  571603463 heartbeat IPC: 0.95846 cumulative IPC: 0.81568 (Simulation time: 0 hr 19 min 34 sec) 
Heartbeat CPU  0 instructions:  526000001 cycles:  572645038 heartbeat IPC: 0.96009 cumulative IPC: 0.81596 (Simulation time: 0 hr 19 min 36 sec) 
Heartbeat CPU  0 instructions:  527000001 cycles:  573683886 heartbeat IPC: 0.96260 cumulative IPC: 0.81626 (Simulation time: 0 hr 19 min 38 sec) 
Heartbeat CPU  0 instructions:  528000000 cycles:  574727219 heartbeat IPC: 0.95847 cumulative IPC: 0.81654 (Simulation time: 0 hr 19 min 41 sec) 
Heartbeat CPU  0 instructions:  529000003 cycles:  575776681 heartbeat IPC: 0.95287 cumulative IPC: 0.81681 (Simulation time: 0 hr 19 min 43 sec) 
[...]
Heartbeat CPU  0 instructions:  548000000 cycles:  596254858 heartbeat IPC: 0.88657 cumulative IPC: 0.82098 (Simulation time: 0 hr 20 min 26 sec) 
Heartbeat CPU  0 instructions:  549000003 cycles:  597477339 heartbeat IPC: 0.81801 cumulative IPC: 0.82097 (Simulation time: 0 hr 20 min 29 sec) 
Heartbeat CPU  0 instructions:  550000000 cycles:  598623938 heartbeat IPC: 0.87214 cumulative IPC: 0.82108 (Simulation time: 0 hr 20 min 31 sec) 
Heartbeat CPU  0 instructions:  551000000 cycles:  599680072 heartbeat IPC: 0.94685 cumulative IPC: 0.82132 (Simulation time: 0 hr 20 min 33 sec) 
Heartbeat CPU  0 instructions:  552000000 cycles:  600718080 heartbeat IPC: 0.96338 cumulative IPC: 0.82159 (Simulation time: 0 hr 20 min 36 sec) 
Heartbeat CPU  0 instructions:  553000000 cycles:  601765541 heartbeat IPC: 0.95469 cumulative IPC: 0.82184 (Simulation time: 0 hr 20 min 38 sec) 
Heartbeat CPU  0 instructions:  554000000 cycles:  602955805 heartbeat IPC: 0.84015 cumulative IPC: 0.82188 (Simulation time: 0 hr 20 min 40 sec) 
Heartbeat CPU  0 instructions:  555000002 cycles:  604139366 heartbeat IPC: 0.84491 cumulative IPC: 0.82193 (Simulation time: 0 hr 20 min 42 sec) 
Heartbeat CPU  0 instructions:  556000000 cycles:  605125865 heartbeat IPC: 1.01368 cumulative IPC: 0.82227 (Simulation time: 0 hr 20 min 45 sec) 
Heartbeat CPU  0 instructions:  557000000 cycles:  606113724 heartbeat IPC: 1.01229 cumulative IPC: 0.82261 (Simulation time: 0 hr 20 min 47 sec) 
Heartbeat CPU  0 instructions:  558000000 cycles:  607157068 heartbeat IPC: 0.95846 cumulative IPC: 0.82286 (Simulation time: 0 hr 20 min 49 sec) 
Heartbeat CPU  0 instructions:  559000000 cycles:  608291452 heartbeat IPC: 0.88154 cumulative IPC: 0.82298 (Simulation time: 0 hr 20 min 52 sec) 
Heartbeat CPU  0 instructions:  560000000 cycles:  609457295 heartbeat IPC: 0.85775 cumulative IPC: 0.82305 (Simulation time: 0 hr 20 min 54 sec) 
Heartbeat CPU  0 instructions:  561000001 cycles:  610539174 heartbeat IPC: 0.92432 cumulative IPC: 0.82325 (Simulation time: 0 hr 20 min 56 sec) 
Heartbeat CPU  0 instructions:  562000003 cycles:  611586102 heartbeat IPC: 0.95518 cumulative IPC: 0.82350 (Simulation time: 0 hr 20 min 59 sec) 
Heartbeat CPU  0 instructions:  563000000 cycles:  612626067 heartbeat IPC: 0.96157 cumulative IPC: 0.82375 (Simulation time: 0 hr 21 min 1 sec) 
Heartbeat CPU  0 instructions:  564000000 cycles:  613772578 heartbeat IPC: 0.87221 cumulative IPC: 0.82385 (Simulation time: 0 hr 21 min 3 sec) 
Heartbeat CPU  0 instructions:  565000003 cycles:  614907057 heartbeat IPC: 0.88146 cumulative IPC: 0.82397 (Simulation time: 0 hr 21 min 5 sec) 
Heartbeat CPU  0 instructions:  566000003 cycles:  615993844 heartbeat IPC: 0.92014 cumulative IPC: 0.82415 (Simulation time: 0 hr 21 min 8 sec) 
Heartbeat CPU  0 instructions:  567000001 cycles:  616984023 heartbeat IPC: 1.00992 cumulative IPC: 0.82448 (Simulation time: 0 hr 21 min 10 sec) 
Heartbeat CPU  0 instructions:  568000000 cycles:  617981804 heartbeat IPC: 1.00222 cumulative IPC: 0.82479 (Simulation time: 0 hr 21 min 12 sec) 
Heartbeat CPU  0 instructions:  569000002 cycles:  619082853 heartbeat IPC: 0.90823 cumulative IPC: 0.82495 (Simulation time: 0 hr 21 min 14 sec) 
Heartbeat CPU  0 instructions:  570000000 cycles:  620283206 heartbeat IPC: 0.83309 cumulative IPC: 0.82497 (Simulation time: 0 hr 21 min 17 sec) 
Heartbeat CPU  0 instructions:  571000002 cycles:  621382862 heartbeat IPC: 0.90938 cumulative IPC: 0.82513 (Simulation time: 0 hr 21 min 19 sec) 
Heartbeat CPU  0 instructions:  572000000 cycles:  622435917 heartbeat IPC: 0.94962 cumulative IPC: 0.82536 (Simulation time: 0 hr 21 min 22 sec) 
Heartbeat CPU  0 instructions:  573000001 cycles:  623474617 heartbeat IPC: 0.96274 cumulative IPC: 0.82561 (Simulation time: 0 hr 21 min 24 sec) 
Heartbeat CPU  0 instructions:  574000003 cycles:  624517563 heartbeat IPC: 0.95882 cumulative IPC: 0.82585 (Simulation time: 0 hr 21 min 26 sec) 
Heartbeat CPU  0 instructions:  575000000 cycles:  625693653 heartbeat IPC: 0.85027 cumulative IPC: 0.82590 (Simulation time: 0 hr 21 min 28 sec) 
Heartbeat CPU  0 instructions:  576000000 cycles:  626825701 heartbeat IPC: 0.88335 cumulative IPC: 0.82601 (Simulation time: 0 hr 21 min 31 sec) 
Heartbeat CPU  0 instructions:  577000000 cycles:  627812091 heartbeat IPC: 1.01380 cumulative IPC: 0.82633 (Simulation time: 0 hr 21 min 33 sec) 
Heartbeat CPU  0 instructions:  578000002 cycles:  628810448 heartbeat IPC: 1.00165 cumulative IPC: 0.82664 (Simulation time: 0 hr 21 min 35 sec) 
Heartbeat CPU  0 instructions:  579000001 cycles:  629855572 heartbeat IPC: 0.95682 cumulative IPC: 0.82687 (Simulation time: 0 hr 21 min 37 sec) 
Heartbeat CPU  0 instructions:  580000000 cycles:  631046067 heartbeat IPC: 0.83999 cumulative IPC: 0.82690 (Simulation time: 0 hr 21 min 40 sec) 
Heartbeat CPU  0 instructions:  581000002 cycles:  632224986 heartbeat IPC: 0.84824 cumulative IPC: 0.82694 (Simulation time: 0 hr 21 min 42 sec) 
Heartbeat CPU  0 instructions:  582000000 cycles:  633283256 heartbeat IPC: 0.94494 cumulative IPC: 0.82716 (Simulation time: 0 hr 21 min 44 sec) 
Heartbeat CPU  0 instructions:  583000003 cycles:  634337027 heartbeat IPC: 0.94898 cumulative IPC: 0.82738 (Simulation time: 0 hr 21 min 47 sec) 
Heartbeat CPU  0 instructions:  584000000 cycles:  635384371 heartbeat IPC: 0.95479 cumulative IPC: 0.82760 (Simulation time: 0 hr 21 min 49 sec) 
Heartbeat CPU  0 instructions:  585000002 cycles:  636544604 heartbeat IPC: 0.86190 cumulative IPC: 0.82767 (Simulation time: 0 hr 21 min 51 sec) 
Heartbeat CPU  0 instructions:  586000003 cycles:  637697207 heartbeat IPC: 0.86760 cumulative IPC: 0.82775 (Simulation time: 0 hr 21 min 54 sec) 
Heartbeat CPU  0 instructions:  587000001 cycles:  638747250 heartbeat IPC: 0.95234 cumulative IPC: 0.82797 (Simulation time: 0 hr 21 min 56 sec) 
Heartbeat CPU  0 instructions:  588000000 cycles:  639737339 heartbeat IPC: 1.01001 cumulative IPC: 0.82828 (Simulation time: 0 hr 21 min 58 sec) 
Heartbeat CPU  0 instructions:  589000002 cycles:  640749479 heartbeat IPC: 0.98801 cumulative IPC: 0.82855 (Simulation time: 0 hr 22 min 0 sec) 
Heartbeat CPU  0 instructions:  590000001 cycles:  641879703 heartbeat IPC: 0.88478 cumulative IPC: 0.82866 (Simulation time: 0 hr 22 min 3 sec) 
Heartbeat CPU  0 instructions:  591000002 cycles:  643107451 heartbeat IPC: 0.81450 cumulative IPC: 0.82863 (Simulation time: 0 hr 22 min 5 sec) 
Heartbeat CPU  0 instructions:  592000000 cycles:  644226820 heartbeat IPC: 0.89336 cumulative IPC: 0.82875 (Simulation time: 0 hr 22 min 8 sec) 
Heartbeat CPU  0 instructions:  593000003 cycles:  645282550 heartbeat IPC: 0.94721 cumulative IPC: 0.82896 (Simulation time: 0 hr 22 min 10 sec) 
Heartbeat CPU  0 instructions:  594000000 cycles:  646330668 heartbeat IPC: 0.95409 cumulative IPC: 0.82918 (Simulation time: 0 hr 22 min 12 sec) 
Heartbeat CPU  0 instructions:  595000003 cycles:  647411587 heartbeat IPC: 0.92514 cumulative IPC: 0.82936 (Simulation time: 0 hr 22 min 14 sec) 
Heartbeat CPU  0 instructions:  596000000 cycles:  648589641 heartbeat IPC: 0.84885 cumulative IPC: 0.82940 (Simulation time: 0 hr 22 min 17 sec) 
Heartbeat CPU  0 instructions:  597000001 cycles:  649733540 heartbeat IPC: 0.87420 cumulative IPC: 0.82948 (Simulation time: 0 hr 22 min 19 sec) 
Heartbeat CPU  0 instructions:  598000002 cycles:  650721002 heartbeat IPC: 1.01270 cumulative IPC: 0.82978 (Simulation time: 0 hr 22 min 21 sec) 
Heartbeat CPU  0 instructions:  599000000 cycles:  651710706 heartbeat IPC: 1.01040 cumulative IPC: 0.83008 (Simulation time: 0 hr 22 min 23 sec) 
Heartbeat CPU  0 instructions:  600000000 cycles:  652768438 heartbeat IPC: 0.94542 cumulative IPC: 0.83028 (Simulation time: 0 hr 22 min 26 sec) 
Finished CPU 0 instructions: 500000001 cycles: 602204972 cumulative IPC: 0.83028 (Simulation time: 0 hr 22 min 26 sec) 

ChampSim completed all CPUs

[ROI Statistics]
Core_0_instructions 500000001
Core_0_cycles 602204972
Core_0_IPC 0.83028

Core_0_branch_prediction_accuracy 99.14585
Core_0_branch_MPKI 0.18961
Core_0_average_ROB_occupancy_at_mispredict 243.96164

Core_0_L1D_total_access 145285601
Core_0_L1D_total_hit 140434640
Core_0_L1D_total_miss 4850961
Core_0_L1D_loads 135410038
Core_0_L1D_load_hit 131949971
Core_0_L1D_load_miss 3460067
Core_0_L1D_RFOs 9875563
Core_0_L1D_RFO_hit 8484669
Core_0_L1D_RFO_miss 1390894
Core_0_L1D_prefetches 0
Core_0_L1D_prefetch_hit 0
Core_0_L1D_prefetch_miss 0
Core_0_L1D_writebacks 0
Core_0_L1D_writeback_hit 0
Core_0_L1D_writeback_miss 0
Core_0_L1D_prefetch_requested 0
Core_0_L1D_prefetch_dropped 0
Core_0_L1D_prefetch_issued 0
Core_0_L1D_prefetch_filled 0
Core_0_L1D_prefetch_useful 0
Core_0_L1D_prefetch_useless 0
Core_0_L1D_prefetch_late 0
Core_0_L1D_average_miss_latency 329.97062

Core_0_L1D_rq_access 196255024
Core_0_L1D_rq_forward 0
Core_0_L1D_rq_merged 59779769
Core_0_L1D_rq_to_cache 136475255
Core_0_L1D_rq_full 0

Core_0_L1D_wq_access 15647860
Core_0_L1D_wq_forward 0
Core_0_L1D_wq_merged 1
Core_0_L1D_wq_to_cache 15647859
Core_0_L1D_wq_full 2070141

Core_0_L1D_pq_access 0
Core_0_L1D_pq_forward 0
Core_0_L1D_pq_merged 0
Core_0_L1D_pq_to_cache 0
Core_0_L1D_pq_full 0

Core_0_L1D_acc_epochs 631794
Core_0_L1D_acc_level_0 631794
Core_0_L1D_acc_level_1 0
Core_0_L1D_acc_level_2 0
Core_0_L1D_acc_level_3 0
Core_0_L1D_acc_level_4 0
Core_0_L1D_acc_level_5 0
Core_0_L1D_acc_level_6 0
Core_0_L1D_acc_level_7 0
Core_0_L1D_acc_level_8 0
Core_0_L1D_acc_level_9 0

Core_0_L1I_total_access 116417090
Core_0_L1I_total_hit 116416714
Core_0_L1I_total_miss 376
Core_0_L1I_loads 116417090
Core_0_L1I_load_hit 116416714
Core_0_L1I_load_miss 376
Core_0_L1I_RFOs 0
Core_0_L1I_RFO_hit 0
Core_0_L1I_RFO_miss 0
Core_0_L1I_prefetches 0
Core_0_L1I_prefetch_hit 0
Core_0_L1I_prefetch_miss 0
Core_0_L1I_writebacks 0
Core_0_L1I_writeback_hit 0
Core_0_L1I_writeback_miss 0
Core_0_L1I_prefetch_requested 0
Core_0_L1I_prefetch_dropped 0
Core_0_L1I_prefetch_issued 0
Core_0_L1I_prefetch_filled 0
Core_0_L1I_prefetch_useful 0
Core_0_L1I_prefetch_useless 0
Core_0_L1I_prefetch_late 0
Core_0_L1I_average_miss_latency 779.66223

Core_0_L1I_rq_access 500000000
Core_0_L1I_rq_forward 0
Core_0_L1I_rq_merged 383582160
Core_0_L1I_rq_to_cache 116417840
Core_0_L1I_rq_full 0

Core_0_L1I_wq_access 0
Core_0_L1I_wq_forward 0
Core_0_L1I_wq_merged 0
Core_0_L1I_wq_to_cache 0
Core_0_L1I_wq_full 0

Core_0_L1I_pq_access 0
Core_0_L1I_pq_forward 0
Core_0_L1I_pq_merged 0
Core_0_L1I_pq_to_cache 0
Core_0_L1I_pq_full 0

Core_0_L1I_acc_epochs 631794
Core_0_L1I_acc_level_0 631794
Core_0_L1I_acc_level_1 0
Core_0_L1I_acc_level_2 0
Core_0_L1I_acc_level_3 0
Core_0_L1I_acc_level_4 0
Core_0_L1I_acc_level_5 0
Core_0_L1I_acc_level_6 0
Core_0_L1I_acc_level_7 0
Core_0_L1I_acc_level_8 0
Core_0_L1I_acc_level_9 0

Core_0_L2C_total_access 9910118
Core_0_L2C_total_hit 6256743
Core_0_L2C_total_miss 3653375
Core_0_L2C_loads 3460406
Core_0_L2C_load_hit 2590993
Core_0_L2C_load_miss 869413
Core_0_L2C_RFOs 1390869
Core_0_L2C_RFO_hit 362324
Core_0_L2C_RFO_miss 1028545
Core_0_L2C_prefetches 3400181
Core_0_L2C_prefetch_hit 1644858
Core_0_L2C_prefetch_miss 1755323
Core_0_L2C_writebacks 1658662
Core_0_L2C_writeback_hit 1658568
Core_0_L2C_writeback_miss 94
Core_0_L2C_prefetch_requested 22015395
Core_0_L2C_prefetch_dropped 9097
Core_0_L2C_prefetch_issued 22006298
Core_0_L2C_prefetch_filled 2286336
Core_0_L2C_prefetch_useful 2275342
Core_0_L2C_prefetch_useless 10975
Core_0_L2C_prefetch_late 65833
Core_0_L2C_average_miss_latency 454.58564

Core_0_L2C_rq_access 4851337
Core_0_L2C_rq_forward 0
Core_0_L2C_rq_merged 0
Core_0_L2C_rq_to_cache 4851275
Core_0_L2C_rq_full 0

Core_0_L2C_wq_access 1658662
Core_0_L2C_wq_forward 164
Core_0_L2C_wq_merged 0
Core_0_L2C_wq_to_cache 1658662
Core_0_L2C_wq_full 0

Core_0_L2C_pq_access 22006298
Core_0_L2C_pq_forward 0
Core_0_L2C_pq_merged 137291
Core_0_L2C_pq_to_cache 21868905
Core_0_L2C_pq_full 0

Core_0_L2C_acc_epochs 631794
Core_0_L2C_acc_level_0 54105
Core_0_L2C_acc_level_1 18855
Core_0_L2C_acc_level_2 24255
Core_0_L2C_acc_level_3 31691
Core_0_L2C_acc_level_4 42271
Core_0_L2C_acc_level_5 34683
Core_0_L2C_acc_level_6 39661
Core_0_L2C_acc_level_7 52102
Core_0_L2C_acc_level_8 71265
Core_0_L2C_acc_level_9 262906

Core_0_LLC_total_access 15409693
Core_0_LLC_total_hit 11053944
Core_0_LLC_total_miss 4355749
Core_0_LLC_loads 803636
Core_0_LLC_load_hit 701235
Core_0_LLC_load_miss 102401
Core_0_LLC_RFOs 1028536
Core_0_LLC_RFO_hit 41847
Core_0_LLC_RFO_miss 986689
Core_0_LLC_prefetches 12468795
Core_0_LLC_prefetch_hit 9947105
Core_0_LLC_prefetch_miss 2521690
Core_0_LLC_writebacks 1108726
Core_0_LLC_writeback_hit 363757
Core_0_LLC_writeback_miss 744969
Core_0_LLC_prefetch_requested 0
Core_0_LLC_prefetch_dropped 0
Core_0_LLC_prefetch_issued 0
Core_0_LLC_prefetch_filled 3185327
Core_0_LLC_prefetch_useful 945972
Core_0_LLC_prefetch_useless 2220676
Core_0_LLC_prefetch_late 24864
Core_0_LLC_average_miss_latency 1125.01091

Core_0_LLC_rq_access 1832172
Core_0_LLC_rq_forward 0
Core_0_LLC_rq_merged 0
Core_0_LLC_rq_to_cache 1832172
Core_0_LLC_rq_full 0

Core_0_LLC_wq_access 1108726
Core_0_LLC_wq_forward 1
Core_0_LLC_wq_merged 0
Core_0_LLC_wq_to_cache 1108726
Core_0_LLC_wq_full 0

Core_0_LLC_pq_access 19725310
Core_0_LLC_pq_forward 0
Core_0_LLC_pq_merged 5476
Core_0_LLC_pq_to_cache 19719833
Core_0_LLC_pq_full 0

Core_0_LLC_acc_epochs 637470
Core_0_LLC_acc_level_0 135892
Core_0_LLC_acc_level_1 116715
Core_0_LLC_acc_level_2 136590
Core_0_LLC_acc_level_3 87254
Core_0_LLC_acc_level_4 41273
Core_0_LLC_acc_level_5 44400
Core_0_LLC_acc_level_6 24039
Core_0_LLC_acc_level_7 11595
Core_0_LLC_acc_level_8 7215
Core_0_LLC_acc_level_9 32497

Core_0_major_page_fault 0
Core_0_minor_page_fault 19121

spp.pref.total 22015395
spp.pref.at_L2 2586491
spp.pref.at_LLC 19428904

spp.depth.max 11
spp.depth.min 0
spp.depth.avg 5

spp.breadth.max 2
spp.breadth.min 0
spp.breadth.avg 0

delta_1 21079032
delta_16 863918
delta_-15 670933
delta_32 160643
delta_-47 153300
delta_31 71902
delta_-31 37630
delta_-30 31684
delta_15 21099
delta_-1 7302
delta_3 4694
delta_-8 3439
delta_46 2625
delta_2 2302
delta_-16 1943
delta_-45 1687
delta_-2 1642
delta_-44 1542
delta_-4 1517
delta_-10 1360
delta_4 1299
delta_19 1249
delta_63 1040
delta_-9 945
delta_47 945
delta_-38 893
delta_-3 715
delta_-32 578
delta_-23 566
delta_34 529
delta_25 528
delta_22 523
delta_-43 485
delta_38 409
delta_29 397
delta_-18 393
delta_-61 362
delta_41 343
delta_-60 325
delta_-34 317
delta_57 317
delta_-46 299
delta_-29 253
delta_-40 239
delta_62 236
delta_-5 219
delta_13 214
delta_-41 206
delta_-12 200
delta_-11 190
delta_48 189
delta_30 181
delta_9 180
delta_-48 168
delta_12 154
delta_-14 139
delta_50 134
delta_-6 126
delta_6 113
delta_7 86
delta_18 74
delta_61 67
delta_10 64
delta_14 55
delta_-19 53
delta_23 51
delta_-55 45
delta_-7 44
delta_-13 40
delta_35 35
delta_11 35
delta_17 32
delta_21 31
delta_-21 30
delta_-22 30
delta_-35 21
delta_-37 21
delta_-24 19
delta_28 13
delta_42 8
delta_39 4
delta_-51 1

depth_1_delta_1 3757768
depth_1_delta_16 258935
depth_1_delta_-15 202381
depth_1_delta_32 51776
depth_1_delta_-47 46528
depth_1_delta_31 41812
depth_1_delta_-30 19091
depth_1_delta_-31 18311
depth_1_delta_15 9022
depth_1_delta_-1 5880
depth_1_delta_3 3199
depth_1_delta_-8 2131
depth_1_delta_46 1915
depth_1_delta_-16 1824
depth_1_delta_-45 1563
depth_1_delta_2 1527
depth_1_delta_-2 1364
depth_1_delta_4 1260
depth_1_delta_19 1206
depth_1_delta_-10 1021
depth_1_delta_63 1007
depth_1_delta_-44 1000
depth_1_delta_-4 921
depth_1_delta_47 915
depth_1_delta_-9 892
depth_1_delta_-3 612
depth_1_delta_-38 578
depth_1_delta_25 526
depth_1_delta_34 525
depth_1_delta_22 424
depth_1_delta_-32 397
depth_1_delta_29 386
depth_1_delta_-43 348
depth_1_delta_-23 344
depth_1_delta_-18 333
depth_1_delta_-60 325
depth_1_delta_41 316
depth_1_delta_-34 313
depth_1_delta_-46 299
depth_1_delta_57 275
depth_1_delta_38 260
depth_1_delta_-29 253
depth_1_delta_-61 239
depth_1_delta_-40 229
depth_1_delta_-5 213
depth_1_delta_62 208
depth_1_delta_-11 190
depth_1_delta_48 189
depth_1_delta_9 180
depth_1_delta_13 171
depth_1_delta_-48 168
depth_1_delta_-41 161
depth_1_delta_-14 139
depth_1_delta_50 130
depth_1_delta_-6 126
depth_1_delta_-12 119
depth_1_delta_6 113
depth_1_delta_30 106
depth_1_delta_7 86
depth_1_delta_61 67
depth_1_delta_12 62
depth_1_delta_-19 53
depth_1_delta_10 53
depth_1_delta_23 51
depth_1_delta_-7 44
depth_1_delta_-13 40
depth_1_delta_14 39
depth_1_delta_-55 35
depth_1_delta_17 32
depth_1_delta_-21 30
depth_1_delta_-22 30
depth_1_delta_11 29
depth_1_delta_35 29
depth_1_delta_18 21
depth_1_delta_-37 19
depth_1_delta_-24 19
depth_1_delta_21 18
depth_1_delta_-35 15
depth_1_delta_28 13
depth_1_delta_42 8
depth_1_delta_39 4
depth_1_delta_-51 1
depth_2_delta_1 3586642
depth_2_delta_16 221983
depth_2_delta_-15 167610
depth_2_delta_32 38894
depth_2_delta_-47 37205
depth_2_delta_31 17578
depth_2_delta_-31 9832
depth_2_delta_-30 9759
depth_2_delta_15 7294
depth_2_delta_3 1248
depth_2_delta_-8 1043
depth_2_delta_-1 879
depth_2_delta_46 709
depth_2_delta_2 643
depth_2_delta_-44 490
depth_2_delta_-4 411
depth_2_delta_-10 339
depth_2_delta_-38 315
depth_2_delta_-2 232
depth_2_delta_-23 222
depth_2_delta_-32 181
depth_2_delta_-43 137
depth_2_delta_-45 124
depth_2_delta_-16 119
depth_2_delta_-61 118
depth_2_delta_38 104
depth_2_delta_-3 103
depth_2_delta_22 99
depth_2_delta_12 92
depth_2_delta_-12 81
depth_2_delta_30 75
depth_2_delta_-18 60
depth_2_delta_18 53
depth_2_delta_-9 53
depth_2_delta_13 43
depth_2_delta_19 42
depth_2_delta_4 39
depth_2_delta_-41 37
depth_2_delta_57 37
depth_2_delta_47 30
depth_2_delta_62 28
depth_2_delta_41 27
depth_2_delta_63 27
depth_2_delta_14 13
depth_2_delta_21 13
depth_2_delta_29 11
depth_2_delta_10 11
depth_2_delta_-55 9
depth_2_delta_-40 8
depth_2_delta_35 6
depth_2_delta_-5 6
depth_2_delta_11 6
depth_2_delta_-35 6
depth_2_delta_34 4
depth_2_delta_-34 4
depth_2_delta_50 4
depth_2_delta_25 2
depth_2_delta_-37 2
depth_3_delta_1 3391810
depth_3_delta_16 169010
depth_3_delta_-15 128102
depth_3_delta_32 29560
depth_3_delta_-47 29513
depth_3_delta_31 8982
depth_3_delta_-31 6744
depth_3_delta_15 3633
depth_3_delta_-30 1841
depth_3_delta_-1 516
depth_3_delta_-8 245
depth_3_delta_3 237
depth_3_delta_-4 177
depth_3_delta_2 72
depth_3_delta_-44 52
depth_3_delta_38 45
depth_3_delta_-2 42
depth_3_delta_63 6
depth_3_delta_57 5
depth_3_delta_-41 5
depth_3_delta_-61 5
depth_3_delta_14 3
depth_3_delta_-40 2
depth_3_delta_-55 1
depth_3_delta_46 1
depth_3_delta_19 1
depth_4_delta_1 3198585
depth_4_delta_16 122125
depth_4_delta_-15 93825
depth_4_delta_32 23308
depth_4_delta_-47 23273
depth_4_delta_31 2885
depth_4_delta_-31 1911
depth_4_delta_15 1149
depth_4_delta_-30 896
depth_4_delta_2 60
depth_4_delta_-1 27
depth_4_delta_-8 20
depth_4_delta_3 10
depth_4_delta_-4 8
depth_4_delta_-2 4
depth_4_delta_-41 3
depth_5_delta_1 2783069
depth_5_delta_16 66908
depth_5_delta_-15 56542
depth_5_delta_32 13646
depth_5_delta_-47 13168
depth_5_delta_-31 685
depth_5_delta_31 614
depth_5_delta_-30 96
depth_5_delta_15 1
depth_6_delta_1 2010914
depth_6_delta_16 21972
depth_6_delta_-15 19368
depth_6_delta_-47 3500
depth_6_delta_32 3274
depth_6_delta_-31 141
depth_6_delta_31 30
depth_6_delta_-30 1
depth_7_delta_1 1202386
depth_7_delta_-15 2368
depth_7_delta_16 2328
depth_7_delta_32 185
depth_7_delta_-47 112
depth_7_delta_-31 6
depth_7_delta_31 1
depth_8_delta_1 694074
depth_8_delta_-15 562
depth_8_delta_16 487
depth_8_delta_-47 1
depth_9_delta_1 365448
depth_9_delta_16 166
depth_9_delta_-15 166
depth_10_delta_1 88094
depth_10_delta_-15 9
depth_10_delta_16 4
depth_11_delta_1 242

Channel_0_RQ_row_buffer_hit 790831
Channel_0_RQ_row_buffer_miss 2819688
Channel_0_WQ_row_buffer_hit 243481
Channel_0_WQ_row_buffer_miss 856423
Channel_0_WQ_full 0
Channel_0_dbus_congested 4166539

avg_congested_cycle 98

DRAM_bw_pochs 2549877
DRAM_bw_level_0 802279
DRAM_bw_level_1 404254
DRAM_bw_level_2 0
DRAM_bw_level_3 1343344
