*************************************************
   ChampSim Multicore Out-of-Order Simulator
   Last compiled: Dec 11 2024 17:59:53
*************************************************
parsing config file: /home/functionmain/桌面/Pythia/config/bingo.ini

trace_0 /home/functionmain/桌面/Pythia/traces/437.leslie3d-271B.champsimtrace.xz
adding L2C_PREFETCHER: Bingo
Initialize SHIP state
warmup_instructions 100000000
simulation_instructions 500000000
champsim_seed 220
measure_ipc 0
measure_ipc_epoch 1000
measure_dram_bw 1
measure_dram_bw_epoch 256
measure_cache_acc 1
measure_cache_acc_epoch 1024
l1d_perfect 0
l2c_perfect 0
llc_perfect 0
l1d_semi_perfect 0
l2c_semi_perfect 0
llc_semi_perfect 0
semi_perfect_cache_page_buffer_size 64

num_cpus 1
cpu_freq 4000
dram_io_freq 9600
page_size 4096
block_size 64
max_read_per_cycle 8
max_fill_per_cycle 1
dram_channels 1
log2_dram_channels 0
dram_ranks 1
dram_banks 8
dram_rows 65536
dram_columns 128
dram_row_size 8
dram_size 4096
dram_pages 1048576

fetch_width 6
decode_width 6
exec_width 4
lq_width 2
sq_width 2
retire_width 4
scheduler_size 128
branch_mispredict_penalty 20
rob_size 256
lq_size 72
sq_size 56
num_instr_destinations_sparc 4
num_instr_destinations 2
num_instr_sources 4

itlb_set 16
itlb_way 8
itlb_rq_size 16
itlb_wq_size 16
itlb_pq_size 0
itlb_mshr_size 8
itlb_latency 1

dtlb_set 16
dtlb_way 4
dtlb_rq_size 16
dtlb_wq_size 16
dtlb_pq_size 0
dtlb_mshr_size 8
dtlb_latency 1

stlb_set 128
stlb_way 12
stlb_rq_size 32
stlb_wq_size 32
stlb_pq_size 0
stlb_mshr_size 16
stlb_latency 8

l1i_size 32
l1i_set 64
l1i_way 8
l1i_rq_size 64
l1i_wq_size 64
l1i_pq_size 8
l1i_mshr_size 8
l1i_latency 1

l1d_size 32
l1d_set 64
l1d_way 8
l1d_rq_size 64
l1d_wq_size 64
l1d_pq_size 8
l1d_mshr_size 16
l1d_latency 4

l2c_size 256
l2c_set 512
l2c_way 8
l2c_rq_size 32
l2c_wq_size 32
l2c_pq_size 32
l2c_mshr_size 32
l2c_latency 10

llc_size 2048
llc_set 2048
llc_way 16
llc_rq_size 32
llc_wq_size 32
llc_pq_size 32
llc_mshr_size 64
llc_latency 20

dram_channel_width 8
dram_wq_size 64
dram_rq_size 64
tRP 15
tRCD 15
tCAS 12.5
dram_dbus_turn_around_time 30
dram_write_high_wm 56
dram_write_low_wm 48
min_dram_writes_per_switch 16
dram_mtps 9600
dram_dbus_return_time 3

bingo_region_size 2048
bingo_pattern_len 32
bingo_pc_width 16
bingo_min_addr_width 5
bingo_max_addr_width 16
bingo_ft_size 64
bingo_at_size 128
bingo_pht_size 4096
bingo_pht_ways 16
bingo_pf_streamer_size 128
bingo_debug_level 0
bingo_l1d_thresh 1.01
bingo_l2c_thresh 0.8
bingo_llc_thresh 0.05
bingo_pc_address_fill_level L2


Heartbeat CPU  0 instructions:    1000002 cycles:     516704 heartbeat IPC: 1.93535 cumulative IPC: 1.93535 (Simulation time: 0 hr 0 min 2 sec) 
Heartbeat CPU  0 instructions:    2000001 cycles:    1031913 heartbeat IPC: 1.94096 cumulative IPC: 1.93815 (Simulation time: 0 hr 0 min 4 sec) 
Heartbeat CPU  0 instructions:    3000003 cycles:    1547048 heartbeat IPC: 1.94124 cumulative IPC: 1.93918 (Simulation time: 0 hr 0 min 6 sec) 
Heartbeat CPU  0 instructions:    4000000 cycles:    2061797 heartbeat IPC: 1.94269 cumulative IPC: 1.94006 (Simulation time: 0 hr 0 min 8 sec) 
Heartbeat CPU  0 instructions:    5000001 cycles:    2576690 heartbeat IPC: 1.94215 cumulative IPC: 1.94047 (Simulation time: 0 hr 0 min 10 sec) 
Heartbeat CPU  0 instructions:    6000001 cycles:    3091533 heartbeat IPC: 1.94234 cumulative IPC: 1.94079 (Simulation time: 0 hr 0 min 12 sec) 
Heartbeat CPU  0 instructions:    7000003 cycles:    3606756 heartbeat IPC: 1.94091 cumulative IPC: 1.94080 (Simulation time: 0 hr 0 min 14 sec) 
Heartbeat CPU  0 instructions:    8000000 cycles:    4121819 heartbeat IPC: 1.94150 cumulative IPC: 1.94089 (Simulation time: 0 hr 0 min 16 sec) 
Heartbeat CPU  0 instructions:    9000000 cycles:    4636574 heartbeat IPC: 1.94267 cumulative IPC: 1.94109 (Simulation time: 0 hr 0 min 18 sec) 
Heartbeat CPU  0 instructions:   10000003 cycles:    5151530 heartbeat IPC: 1.94192 cumulative IPC: 1.94117 (Simulation time: 0 hr 0 min 20 sec) 
Heartbeat CPU  0 instructions:   11000000 cycles:    5666523 heartbeat IPC: 1.94177 cumulative IPC: 1.94123 (Simulation time: 0 hr 0 min 22 sec) 
Heartbeat CPU  0 instructions:   12000000 cycles:    6181190 heartbeat IPC: 1.94300 cumulative IPC: 1.94137 (Simulation time: 0 hr 0 min 24 sec) 
Heartbeat CPU  0 instructions:   13000001 cycles:    6696166 heartbeat IPC: 1.94184 cumulative IPC: 1.94141 (Simulation time: 0 hr 0 min 26 sec) 
Heartbeat CPU  0 instructions:   14000002 cycles:    7211356 heartbeat IPC: 1.94103 cumulative IPC: 1.94138 (Simulation time: 0 hr 0 min 28 sec) 
Heartbeat CPU  0 instructions:   15000000 cycles:    7726190 heartbeat IPC: 1.94237 cumulative IPC: 1.94145 (Simulation time: 0 hr 0 min 30 sec) 
Heartbeat CPU  0 instructions:   16000000 cycles:    8241183 heartbeat IPC: 1.94177 cumulative IPC: 1.94147 (Simulation time: 0 hr 0 min 32 sec) 
Heartbeat CPU  0 instructions:   17000003 cycles:    8756331 heartbeat IPC: 1.94120 cumulative IPC: 1.94145 (Simulation time: 0 hr 0 min 34 sec) 
Heartbeat CPU  0 instructions:   18000002 cycles:    9270917 heartbeat IPC: 1.94331 cumulative IPC: 1.94156 (Simulation time: 0 hr 0 min 36 sec) 
Heartbeat CPU  0 instructions:   19000003 cycles:    9785902 heartbeat IPC: 1.94181 cumulative IPC: 1.94157 (Simulation time: 0 hr 0 min 38 sec) 
Heartbeat CPU  0 instructions:   20000000 cycles:   10300919 heartbeat IPC: 1.94168 cumulative IPC: 1.94157 (Simulation time: 0 hr 0 min 40 sec) 
Heartbeat CPU  0 instructions:   21000001 cycles:   10815827 heartbeat IPC: 1.94210 cumulative IPC: 1.94160 (Simulation time: 0 hr 0 min 42 sec) 
Heartbeat CPU  0 instructions:   22000000 cycles:   11330802 heartbeat IPC: 1.94184 cumulative IPC: 1.94161 (Simulation time: 0 hr 0 min 44 sec) 
Heartbeat CPU  0 instructions:   23000003 cycles:   11845919 heartbeat IPC: 1.94131 cumulative IPC: 1.94160 (Simulation time: 0 hr 0 min 46 sec) 
Heartbeat CPU  0 instructions:   24000000 cycles:   12360701 heartbeat IPC: 1.94256 cumulative IPC: 1.94164 (Simulation time: 0 hr 0 min 48 sec) 
Heartbeat CPU  0 instructions:   25000000 cycles:   12875479 heartbeat IPC: 1.94258 cumulative IPC: 1.94168 (Simulation time: 0 hr 0 min 50 sec) 
Heartbeat CPU  0 instructions:   26000003 cycles:   13390417 heartbeat IPC: 1.94199 cumulative IPC: 1.94169 (Simulation time: 0 hr 0 min 52 sec) 
Heartbeat CPU  0 instructions:   27000002 cycles:   13905233 heartbeat IPC: 1.94244 cumulative IPC: 1.94172 (Simulation time: 0 hr 0 min 54 sec) 
Heartbeat CPU  0 instructions:   28000000 cycles:   14419979 heartbeat IPC: 1.94270 cumulative IPC: 1.94175 (Simulation time: 0 hr 0 min 56 sec) 
Heartbeat CPU  0 instructions:   29000000 cycles:   14934919 heartbeat IPC: 1.94197 cumulative IPC: 1.94176 (Simulation time: 0 hr 0 min 58 sec) 
Heartbeat CPU  0 instructions:   30000002 cycles:   15449856 heartbeat IPC: 1.94199 cumulative IPC: 1.94177 (Simulation time: 0 hr 1 min 0 sec) 
Heartbeat CPU  0 instructions:   31000001 cycles:   15964535 heartbeat IPC: 1.94296 cumulative IPC: 1.94180 (Simulation time: 0 hr 1 min 3 sec) 
Heartbeat CPU  0 instructions:   32000000 cycles:   16479967 heartbeat IPC: 1.94012 cumulative IPC: 1.94175 (Simulation time: 0 hr 1 min 5 sec) 
Heartbeat CPU  0 instructions:   33000000 cycles:   16994919 heartbeat IPC: 1.94193 cumulative IPC: 1.94176 (Simulation time: 0 hr 1 min 7 sec) 
Heartbeat CPU  0 instructions:   34000001 cycles:   17509654 heartbeat IPC: 1.94275 cumulative IPC: 1.94179 (Simulation time: 0 hr 1 min 9 sec) 
Heartbeat CPU  0 instructions:   35000000 cycles:   18024729 heartbeat IPC: 1.94146 cumulative IPC: 1.94178 (Simulation time: 0 hr 1 min 11 sec) 
Heartbeat CPU  0 instructions:   36000000 cycles:   18539735 heartbeat IPC: 1.94172 cumulative IPC: 1.94178 (Simulation time: 0 hr 1 min 13 sec) 
Heartbeat CPU  0 instructions:   37000001 cycles:   19054575 heartbeat IPC: 1.94235 cumulative IPC: 1.94179 (Simulation time: 0 hr 1 min 15 sec) 
Heartbeat CPU  0 instructions:   38000000 cycles:   19569592 heartbeat IPC: 1.94168 cumulative IPC: 1.94179 (Simulation time: 0 hr 1 min 17 sec) 
Heartbeat CPU  0 instructions:   39000002 cycles:   20084718 heartbeat IPC: 1.94128 cumulative IPC: 1.94177 (Simulation time: 0 hr 1 min 19 sec) 
Heartbeat CPU  0 instructions:   40000000 cycles:   20599472 heartbeat IPC: 1.94267 cumulative IPC: 1.94180 (Simulation time: 0 hr 1 min 21 sec) 
Heartbeat CPU  0 instructions:   41000000 cycles:   21114325 heartbeat IPC: 1.94230 cumulative IPC: 1.94181 (Simulation time: 0 hr 1 min 23 sec) 
Heartbeat CPU  0 instructions:   42000000 cycles:   21629350 heartbeat IPC: 1.94165 cumulative IPC: 1.94181 (Simulation time: 0 hr 1 min 25 sec) 
Heartbeat CPU  0 instructions:   43000003 cycles:   22143988 heartbeat IPC: 1.94312 cumulative IPC: 1.94184 (Simulation time: 0 hr 1 min 27 sec) 
Heartbeat CPU  0 instructions:   44000000 cycles:   22658953 heartbeat IPC: 1.94187 cumulative IPC: 1.94184 (Simulation time: 0 hr 1 min 29 sec) 
Heartbeat CPU  0 instructions:   45000003 cycles:   23174197 heartbeat IPC: 1.94083 cumulative IPC: 1.94182 (Simulation time: 0 hr 1 min 31 sec) 
Heartbeat CPU  0 instructions:   46000001 cycles:   23689041 heartbeat IPC: 1.94233 cumulative IPC: 1.94183 (Simulation time: 0 hr 1 min 33 sec) 
Heartbeat CPU  0 instructions:   47000000 cycles:   24203910 heartbeat IPC: 1.94224 cumulative IPC: 1.94184 (Simulation time: 0 hr 1 min 35 sec) 
Heartbeat CPU  0 instructions:   48000000 cycles:   24719300 heartbeat IPC: 1.94028 cumulative IPC: 1.94180 (Simulation time: 0 hr 1 min 37 sec) 
Heartbeat CPU  0 instructions:   49000000 cycles:   25234260 heartbeat IPC: 1.94190 cumulative IPC: 1.94180 (Simulation time: 0 hr 1 min 39 sec) 
Heartbeat CPU  0 instructions:   50000000 cycles:   25749105 heartbeat IPC: 1.94233 cumulative IPC: 1.94182 (Simulation time: 0 hr 1 min 41 sec) 
Heartbeat CPU  0 instructions:   51000003 cycles:   26264128 heartbeat IPC: 1.94167 cumulative IPC: 1.94181 (Simulation time: 0 hr 1 min 43 sec) 
Heartbeat CPU  0 instructions:   52000000 cycles:   26778904 heartbeat IPC: 1.94259 cumulative IPC: 1.94183 (Simulation time: 0 hr 1 min 45 sec) 
Heartbeat CPU  0 instructions:   53000001 cycles:   27293861 heartbeat IPC: 1.94191 cumulative IPC: 1.94183 (Simulation time: 0 hr 1 min 47 sec) 
Heartbeat CPU  0 instructions:   54000003 cycles:   27808996 heartbeat IPC: 1.94124 cumulative IPC: 1.94182 (Simulation time: 0 hr 1 min 49 sec) 
Heartbeat CPU  0 instructions:   55000003 cycles:   28323808 heartbeat IPC: 1.94246 cumulative IPC: 1.94183 (Simulation time: 0 hr 1 min 51 sec) 
Heartbeat CPU  0 instructions:   56000000 cycles:   28838444 heartbeat IPC: 1.94312 cumulative IPC: 1.94185 (Simulation time: 0 hr 1 min 53 sec) 
Heartbeat CPU  0 instructions:   57000002 cycles:   29379913 heartbeat IPC: 1.84683 cumulative IPC: 1.94010 (Simulation time: 0 hr 1 min 55 sec) 
Heartbeat CPU  0 instructions:   58000001 cycles:   29927069 heartbeat IPC: 1.82763 cumulative IPC: 1.93804 (Simulation time: 0 hr 1 min 57 sec) 
Heartbeat CPU  0 instructions:   59000001 cycles:   30474179 heartbeat IPC: 1.82779 cumulative IPC: 1.93607 (Simulation time: 0 hr 1 min 59 sec) 
Heartbeat CPU  0 instructions:   60000000 cycles:   31021441 heartbeat IPC: 1.82728 cumulative IPC: 1.93415 (Simulation time: 0 hr 2 min 1 sec) 
Heartbeat CPU  0 instructions:   61000003 cycles:   31568591 heartbeat IPC: 1.82766 cumulative IPC: 1.93230 (Simulation time: 0 hr 2 min 3 sec) 
Heartbeat CPU  0 instructions:   62000003 cycles:   32115578 heartbeat IPC: 1.82820 cumulative IPC: 1.93053 (Simulation time: 0 hr 2 min 5 sec) 
Heartbeat CPU  0 instructions:   63000003 cycles:   32662728 heartbeat IPC: 1.82765 cumulative IPC: 1.92880 (Simulation time: 0 hr 2 min 7 sec) 
Heartbeat CPU  0 instructions:   64000000 cycles:   33209674 heartbeat IPC: 1.82833 cumulative IPC: 1.92715 (Simulation time: 0 hr 2 min 9 sec) 
Heartbeat CPU  0 instructions:   65000002 cycles:   33752408 heartbeat IPC: 1.84253 cumulative IPC: 1.92579 (Simulation time: 0 hr 2 min 11 sec) 
Heartbeat CPU  0 instructions:   66000002 cycles:   34283989 heartbeat IPC: 1.88118 cumulative IPC: 1.92510 (Simulation time: 0 hr 2 min 13 sec) 
Heartbeat CPU  0 instructions:   67000001 cycles:   34815949 heartbeat IPC: 1.87984 cumulative IPC: 1.92441 (Simulation time: 0 hr 2 min 15 sec) 
Heartbeat CPU  0 instructions:   68000000 cycles:   35347596 heartbeat IPC: 1.88095 cumulative IPC: 1.92375 (Simulation time: 0 hr 2 min 17 sec) 
Heartbeat CPU  0 instructions:   69000003 cycles:   35879468 heartbeat IPC: 1.88016 cumulative IPC: 1.92311 (Simulation time: 0 hr 2 min 19 sec) 
Heartbeat CPU  0 instructions:   70000000 cycles:   36411227 heartbeat IPC: 1.88055 cumulative IPC: 1.92248 (Simulation time: 0 hr 2 min 21 sec) 
Heartbeat CPU  0 instructions:   71000000 cycles:   36943028 heartbeat IPC: 1.88040 cumulative IPC: 1.92188 (Simulation time: 0 hr 2 min 23 sec) 
Heartbeat CPU  0 instructions:   72000000 cycles:   37474713 heartbeat IPC: 1.88081 cumulative IPC: 1.92130 (Simulation time: 0 hr 2 min 25 sec) 
Heartbeat CPU  0 instructions:   73000000 cycles:   38006640 heartbeat IPC: 1.87996 cumulative IPC: 1.92072 (Simulation time: 0 hr 2 min 27 sec) 
Heartbeat CPU  0 instructions:   74000001 cycles:   38537296 heartbeat IPC: 1.88446 cumulative IPC: 1.92022 (Simulation time: 0 hr 2 min 29 sec) 
Heartbeat CPU  0 instructions:   75000001 cycles:   39068895 heartbeat IPC: 1.88112 cumulative IPC: 1.91969 (Simulation time: 0 hr 2 min 31 sec) 
Heartbeat CPU  0 instructions:   76000000 cycles:   39600086 heartbeat IPC: 1.88256 cumulative IPC: 1.91919 (Simulation time: 0 hr 2 min 33 sec) 
Heartbeat CPU  0 instructions:   77000003 cycles:   40131739 heartbeat IPC: 1.88093 cumulative IPC: 1.91868 (Simulation time: 0 hr 2 min 35 sec) 
Heartbeat CPU  0 instructions:   78000002 cycles:   40662974 heartbeat IPC: 1.88240 cumulative IPC: 1.91821 (Simulation time: 0 hr 2 min 37 sec) 
Heartbeat CPU  0 instructions:   79000000 cycles:   41194576 heartbeat IPC: 1.88110 cumulative IPC: 1.91773 (Simulation time: 0 hr 2 min 39 sec) 
Heartbeat CPU  0 instructions:   80000000 cycles:   41725806 heartbeat IPC: 1.88242 cumulative IPC: 1.91728 (Simulation time: 0 hr 2 min 41 sec) 
Heartbeat CPU  0 instructions:   81000003 cycles:   42257418 heartbeat IPC: 1.88108 cumulative IPC: 1.91682 (Simulation time: 0 hr 2 min 43 sec) 
Heartbeat CPU  0 instructions:   82000003 cycles:   42788693 heartbeat IPC: 1.88226 cumulative IPC: 1.91639 (Simulation time: 0 hr 2 min 45 sec) 
Heartbeat CPU  0 instructions:   83000000 cycles:   43376728 heartbeat IPC: 1.70057 cumulative IPC: 1.91347 (Simulation time: 0 hr 2 min 47 sec) 
Heartbeat CPU  0 instructions:   84000000 cycles:   43984108 heartbeat IPC: 1.64642 cumulative IPC: 1.90978 (Simulation time: 0 hr 2 min 50 sec) 
Heartbeat CPU  0 instructions:   85000001 cycles:   44591744 heartbeat IPC: 1.64572 cumulative IPC: 1.90618 (Simulation time: 0 hr 2 min 52 sec) 
Heartbeat CPU  0 instructions:   86000001 cycles:   45199193 heartbeat IPC: 1.64623 cumulative IPC: 1.90269 (Simulation time: 0 hr 2 min 54 sec) 
Heartbeat CPU  0 instructions:   87000002 cycles:   45806740 heartbeat IPC: 1.64596 cumulative IPC: 1.89928 (Simulation time: 0 hr 2 min 57 sec) 
Heartbeat CPU  0 instructions:   88000000 cycles:   46414398 heartbeat IPC: 1.64566 cumulative IPC: 1.89596 (Simulation time: 0 hr 2 min 59 sec) 
Heartbeat CPU  0 instructions:   89000002 cycles:   47022109 heartbeat IPC: 1.64552 cumulative IPC: 1.89273 (Simulation time: 0 hr 3 min 2 sec) 
Heartbeat CPU  0 instructions:   90000003 cycles:   47629540 heartbeat IPC: 1.64628 cumulative IPC: 1.88958 (Simulation time: 0 hr 3 min 4 sec) 
Heartbeat CPU  0 instructions:   91000000 cycles:   48237060 heartbeat IPC: 1.64603 cumulative IPC: 1.88652 (Simulation time: 0 hr 3 min 7 sec) 
Heartbeat CPU  0 instructions:   92000000 cycles:   48844510 heartbeat IPC: 1.64623 cumulative IPC: 1.88353 (Simulation time: 0 hr 3 min 9 sec) 
Heartbeat CPU  0 instructions:   93000000 cycles:   49452113 heartbeat IPC: 1.64581 cumulative IPC: 1.88061 (Simulation time: 0 hr 3 min 12 sec) 
Heartbeat CPU  0 instructions:   94000001 cycles:   50059568 heartbeat IPC: 1.64621 cumulative IPC: 1.87776 (Simulation time: 0 hr 3 min 14 sec) 
Heartbeat CPU  0 instructions:   95000003 cycles:   50667004 heartbeat IPC: 1.64627 cumulative IPC: 1.87499 (Simulation time: 0 hr 3 min 16 sec) 
Heartbeat CPU  0 instructions:   96000000 cycles:   51274653 heartbeat IPC: 1.64568 cumulative IPC: 1.87227 (Simulation time: 0 hr 3 min 19 sec) 
Heartbeat CPU  0 instructions:   97000000 cycles:   51882369 heartbeat IPC: 1.64551 cumulative IPC: 1.86961 (Simulation time: 0 hr 3 min 21 sec) 
Heartbeat CPU  0 instructions:   98000002 cycles:   52489929 heartbeat IPC: 1.64593 cumulative IPC: 1.86702 (Simulation time: 0 hr 3 min 24 sec) 
Heartbeat CPU  0 instructions:   99000003 cycles:   53097480 heartbeat IPC: 1.64595 cumulative IPC: 1.86450 (Simulation time: 0 hr 3 min 26 sec) 
Heartbeat CPU  0 instructions:  100000000 cycles:   53704889 heartbeat IPC: 1.64633 cumulative IPC: 1.86203 (Simulation time: 0 hr 3 min 29 sec) 

Warmup complete CPU  0 instructions:  100000002 cycles:   53704890 (Simulation time: 0 hr 3 min 29 sec) 

Heartbeat CPU  0 instructions:  101000003 cycles:   54804963 heartbeat IPC: 0.90903 cumulative IPC: 0.90903 (Simulation time: 0 hr 3 min 31 sec) 
Heartbeat CPU  0 instructions:  102000000 cycles:   55928881 heartbeat IPC: 0.88974 cumulative IPC: 0.89928 (Simulation time: 0 hr 3 min 34 sec) 
Heartbeat CPU  0 instructions:  103000000 cycles:   57021772 heartbeat IPC: 0.91500 cumulative IPC: 0.90446 (Simulation time: 0 hr 3 min 37 sec) 
Heartbeat CPU  0 instructions:  104000000 cycles:   58125273 heartbeat IPC: 0.90621 cumulative IPC: 0.90490 (Simulation time: 0 hr 3 min 40 sec) 
Heartbeat CPU  0 instructions:  105000001 cycles:   59211500 heartbeat IPC: 0.92062 cumulative IPC: 0.90800 (Simulation time: 0 hr 3 min 43 sec) 
Heartbeat CPU  0 instructions:  106000001 cycles:   60340474 heartbeat IPC: 0.88576 cumulative IPC: 0.90422 (Simulation time: 0 hr 3 min 46 sec) 
Heartbeat CPU  0 instructions:  107000002 cycles:   61432109 heartbeat IPC: 0.91606 cumulative IPC: 0.90589 (Simulation time: 0 hr 3 min 48 sec) 
Heartbeat CPU  0 instructions:  108000000 cycles:   62535148 heartbeat IPC: 0.90658 cumulative IPC: 0.90598 (Simulation time: 0 hr 3 min 51 sec) 
Heartbeat CPU  0 instructions:  109000002 cycles:   63630219 heartbeat IPC: 0.91318 cumulative IPC: 0.90677 (Simulation time: 0 hr 3 min 54 sec) 
Heartbeat CPU  0 instructions:  110000003 cycles:   64754426 heartbeat IPC: 0.88952 cumulative IPC: 0.90502 (Simulation time: 0 hr 3 min 57 sec) 
Heartbeat CPU  0 instructions:  111000000 cycles:   65851973 heartbeat IPC: 0.91112 cumulative IPC: 0.90557 (Simulation time: 0 hr 4 min 0 sec) 
Heartbeat CPU  0 instructions:  112000000 cycles:   66949968 heartbeat IPC: 0.91075 cumulative IPC: 0.90600 (Simulation time: 0 hr 4 min 3 sec) 
Heartbeat CPU  0 instructions:  113000000 cycles:   68052006 heartbeat IPC: 0.90741 cumulative IPC: 0.90611 (Simulation time: 0 hr 4 min 6 sec) 
Heartbeat CPU  0 instructions:  114000001 cycles:   69164792 heartbeat IPC: 0.89865 cumulative IPC: 0.90557 (Simulation time: 0 hr 4 min 9 sec) 
Heartbeat CPU  0 instructions:  115000002 cycles:   70266884 heartbeat IPC: 0.90737 cumulative IPC: 0.90569 (Simulation time: 0 hr 4 min 11 sec) 
Heartbeat CPU  0 instructions:  116000000 cycles:   71362735 heartbeat IPC: 0.91253 cumulative IPC: 0.90611 (Simulation time: 0 hr 4 min 14 sec) 
Heartbeat CPU  0 instructions:  117000001 cycles:   72459615 heartbeat IPC: 0.91168 cumulative IPC: 0.90644 (Simulation time: 0 hr 4 min 17 sec) 
Heartbeat CPU  0 instructions:  118000002 cycles:   73557065 heartbeat IPC: 0.91120 cumulative IPC: 0.90670 (Simulation time: 0 hr 4 min 20 sec) 
Heartbeat CPU  0 instructions:  119000003 cycles:   74670660 heartbeat IPC: 0.89799 cumulative IPC: 0.90624 (Simulation time: 0 hr 4 min 23 sec) 
Heartbeat CPU  0 instructions:  120000000 cycles:   75771798 heartbeat IPC: 0.90815 cumulative IPC: 0.90633 (Simulation time: 0 hr 4 min 26 sec) 
Heartbeat CPU  0 instructions:  121000003 cycles:   77208613 heartbeat IPC: 0.69599 cumulative IPC: 0.89348 (Simulation time: 0 hr 4 min 29 sec) 
Heartbeat CPU  0 instructions:  122000002 cycles:   78211109 heartbeat IPC: 0.99751 cumulative IPC: 0.89773 (Simulation time: 0 hr 4 min 31 sec) 
Heartbeat CPU  0 instructions:  123000002 cycles:   79065808 heartbeat IPC: 1.17000 cumulative IPC: 0.90691 (Simulation time: 0 hr 4 min 34 sec) 
Heartbeat CPU  0 instructions:  124000000 cycles:   79927351 heartbeat IPC: 1.16071 cumulative IPC: 0.91525 (Simulation time: 0 hr 4 min 36 sec) 
Heartbeat CPU  0 instructions:  125000000 cycles:   80806089 heartbeat IPC: 1.13800 cumulative IPC: 0.92247 (Simulation time: 0 hr 4 min 39 sec) 
Heartbeat CPU  0 instructions:  126000001 cycles:   81655642 heartbeat IPC: 1.17709 cumulative IPC: 0.93021 (Simulation time: 0 hr 4 min 41 sec) 
Heartbeat CPU  0 instructions:  127000002 cycles:   82513004 heartbeat IPC: 1.16637 cumulative IPC: 0.93724 (Simulation time: 0 hr 4 min 44 sec) 
Heartbeat CPU  0 instructions:  128000000 cycles:   83368445 heartbeat IPC: 1.16899 cumulative IPC: 0.94392 (Simulation time: 0 hr 4 min 46 sec) 
Heartbeat CPU  0 instructions:  129000003 cycles:   84234457 heartbeat IPC: 1.15472 cumulative IPC: 0.94990 (Simulation time: 0 hr 4 min 48 sec) 
Heartbeat CPU  0 instructions:  130000003 cycles:   85094590 heartbeat IPC: 1.16261 cumulative IPC: 0.95573 (Simulation time: 0 hr 4 min 51 sec) 
Heartbeat CPU  0 instructions:  131000000 cycles:   85971965 heartbeat IPC: 1.13976 cumulative IPC: 0.96073 (Simulation time: 0 hr 4 min 53 sec) 
Heartbeat CPU  0 instructions:  132000000 cycles:   86815827 heartbeat IPC: 1.18503 cumulative IPC: 0.96645 (Simulation time: 0 hr 4 min 56 sec) 
Heartbeat CPU  0 instructions:  133000002 cycles:   87663683 heartbeat IPC: 1.17945 cumulative IPC: 0.97177 (Simulation time: 0 hr 4 min 58 sec) 
Heartbeat CPU  0 instructions:  134000002 cycles:   88508411 heartbeat IPC: 1.18381 cumulative IPC: 0.97691 (Simulation time: 0 hr 5 min 1 sec) 
Heartbeat CPU  0 instructions:  135000000 cycles:   89352468 heartbeat IPC: 1.18475 cumulative IPC: 0.98183 (Simulation time: 0 hr 5 min 3 sec) 
Heartbeat CPU  0 instructions:  136000000 cycles:   90198377 heartbeat IPC: 1.18216 cumulative IPC: 0.98648 (Simulation time: 0 hr 5 min 6 sec) 
Heartbeat CPU  0 instructions:  137000000 cycles:   91041188 heartbeat IPC: 1.18651 cumulative IPC: 0.99099 (Simulation time: 0 hr 5 min 8 sec) 
Heartbeat CPU  0 instructions:  138000003 cycles:   91895877 heartbeat IPC: 1.17002 cumulative IPC: 0.99500 (Simulation time: 0 hr 5 min 11 sec) 
Heartbeat CPU  0 instructions:  139000001 cycles:   92755896 heartbeat IPC: 1.16276 cumulative IPC: 0.99869 (Simulation time: 0 hr 5 min 13 sec) 
Heartbeat CPU  0 instructions:  140000000 cycles:   93613995 heartbeat IPC: 1.16537 cumulative IPC: 1.00228 (Simulation time: 0 hr 5 min 16 sec) 
Heartbeat CPU  0 instructions:  141000000 cycles:   94471415 heartbeat IPC: 1.16629 cumulative IPC: 1.00573 (Simulation time: 0 hr 5 min 18 sec) 
Heartbeat CPU  0 instructions:  142000000 cycles:   95357182 heartbeat IPC: 1.12897 cumulative IPC: 1.00835 (Simulation time: 0 hr 5 min 21 sec) 
Heartbeat CPU  0 instructions:  143000001 cycles:   96210643 heartbeat IPC: 1.17170 cumulative IPC: 1.01163 (Simulation time: 0 hr 5 min 23 sec) 
Heartbeat CPU  0 instructions:  144000000 cycles:   97055360 heartbeat IPC: 1.18383 cumulative IPC: 1.01498 (Simulation time: 0 hr 5 min 26 sec) 
Heartbeat CPU  0 instructions:  145000003 cycles:   97897583 heartbeat IPC: 1.18734 cumulative IPC: 1.01827 (Simulation time: 0 hr 5 min 28 sec) 
Heartbeat CPU  0 instructions:  146000001 cycles:   98744731 heartbeat IPC: 1.18043 cumulative IPC: 1.02132 (Simulation time: 0 hr 5 min 30 sec) 
Heartbeat CPU  0 instructions:  147000002 cycles:   99591095 heartbeat IPC: 1.18153 cumulative IPC: 1.02427 (Simulation time: 0 hr 5 min 33 sec) 
Heartbeat CPU  0 instructions:  148000000 cycles:  100435792 heartbeat IPC: 1.18385 cumulative IPC: 1.02716 (Simulation time: 0 hr 5 min 35 sec) 
Heartbeat CPU  0 instructions:  149000000 cycles:  101293737 heartbeat IPC: 1.16558 cumulative IPC: 1.02965 (Simulation time: 0 hr 5 min 38 sec) 
Heartbeat CPU  0 instructions:  150000003 cycles:  102149309 heartbeat IPC: 1.16881 cumulative IPC: 1.03211 (Simulation time: 0 hr 5 min 40 sec) 
Heartbeat CPU  0 instructions:  151000001 cycles:  102998235 heartbeat IPC: 1.17796 cumulative IPC: 1.03462 (Simulation time: 0 hr 5 min 43 sec) 
Heartbeat CPU  0 instructions:  152000000 cycles:  103878134 heartbeat IPC: 1.13649 cumulative IPC: 1.03641 (Simulation time: 0 hr 5 min 45 sec) 
Heartbeat CPU  0 instructions:  153000001 cycles:  104724889 heartbeat IPC: 1.18098 cumulative IPC: 1.03881 (Simulation time: 0 hr 5 min 48 sec) 
Heartbeat CPU  0 instructions:  154000003 cycles:  105570127 heartbeat IPC: 1.18310 cumulative IPC: 1.04116 (Simulation time: 0 hr 5 min 50 sec) 
Heartbeat CPU  0 instructions:  155000003 cycles:  106418533 heartbeat IPC: 1.17868 cumulative IPC: 1.04337 (Simulation time: 0 hr 5 min 53 sec) 
Heartbeat CPU  0 instructions:  156000000 cycles:  107262548 heartbeat IPC: 1.18481 cumulative IPC: 1.04560 (Simulation time: 0 hr 5 min 55 sec) 
Heartbeat CPU  0 instructions:  157000000 cycles:  108112942 heartbeat IPC: 1.17593 cumulative IPC: 1.04764 (Simulation time: 0 hr 5 min 57 sec) 
Heartbeat CPU  0 instructions:  158000002 cycles:  108961147 heartbeat IPC: 1.17896 cumulative IPC: 1.04965 (Simulation time: 0 hr 6 min 0 sec) 
Heartbeat CPU  0 instructions:  159000002 cycles:  109814468 heartbeat IPC: 1.17189 cumulative IPC: 1.05151 (Simulation time: 0 hr 6 min 2 sec) 
Heartbeat CPU  0 instructions:  160000000 cycles:  110674814 heartbeat IPC: 1.16232 cumulative IPC: 1.05319 (Simulation time: 0 hr 6 min 5 sec) 
Heartbeat CPU  0 instructions:  161000003 cycles:  111531568 heartbeat IPC: 1.16720 cumulative IPC: 1.05488 (Simulation time: 0 hr 6 min 7 sec) 
Heartbeat CPU  0 instructions:  162000000 cycles:  112377498 heartbeat IPC: 1.18213 cumulative IPC: 1.05671 (Simulation time: 0 hr 6 min 10 sec) 
Heartbeat CPU  0 instructions:  163000001 cycles:  113261887 heartbeat IPC: 1.13073 cumulative IPC: 1.05781 (Simulation time: 0 hr 6 min 12 sec) 
Heartbeat CPU  0 instructions:  164000000 cycles:  114110672 heartbeat IPC: 1.17815 cumulative IPC: 1.05950 (Simulation time: 0 hr 6 min 15 sec) 
Heartbeat CPU  0 instructions:  165000001 cycles:  114962263 heartbeat IPC: 1.17427 cumulative IPC: 1.06110 (Simulation time: 0 hr 6 min 17 sec) 
Heartbeat CPU  0 instructions:  166000003 cycles:  115812999 heartbeat IPC: 1.17546 cumulative IPC: 1.06266 (Simulation time: 0 hr 6 min 20 sec) 
Heartbeat CPU  0 instructions:  167000001 cycles:  116666204 heartbeat IPC: 1.17205 cumulative IPC: 1.06415 (Simulation time: 0 hr 6 min 22 sec) 
Heartbeat CPU  0 instructions:  168000000 cycles:  117510418 heartbeat IPC: 1.18453 cumulative IPC: 1.06574 (Simulation time: 0 hr 6 min 25 sec) 
Heartbeat CPU  0 instructions:  169000001 cycles:  118364055 heartbeat IPC: 1.17146 cumulative IPC: 1.06713 (Simulation time: 0 hr 6 min 27 sec) 
Heartbeat CPU  0 instructions:  170000000 cycles:  119210719 heartbeat IPC: 1.18110 cumulative IPC: 1.06861 (Simulation time: 0 hr 6 min 30 sec) 
Heartbeat CPU  0 instructions:  171000000 cycles:  120065621 heartbeat IPC: 1.16972 cumulative IPC: 1.06991 (Simulation time: 0 hr 6 min 32 sec) 
Heartbeat CPU  0 instructions:  172000000 cycles:  120925703 heartbeat IPC: 1.16268 cumulative IPC: 1.07110 (Simulation time: 0 hr 6 min 34 sec) 
Heartbeat CPU  0 instructions:  173000002 cycles:  121820058 heartbeat IPC: 1.11813 cumulative IPC: 1.07171 (Simulation time: 0 hr 6 min 37 sec) 
Heartbeat CPU  0 instructions:  174000002 cycles:  122685982 heartbeat IPC: 1.15484 cumulative IPC: 1.07276 (Simulation time: 0 hr 6 min 39 sec) 
Heartbeat CPU  0 instructions:  175000000 cycles:  123539756 heartbeat IPC: 1.17127 cumulative IPC: 1.07396 (Simulation time: 0 hr 6 min 42 sec) 
Heartbeat CPU  0 instructions:  176000000 cycles:  124406705 heartbeat IPC: 1.15347 cumulative IPC: 1.07494 (Simulation time: 0 hr 6 min 44 sec) 
Heartbeat CPU  0 instructions:  177000001 cycles:  125270835 heartbeat IPC: 1.15723 cumulative IPC: 1.07593 (Simulation time: 0 hr 6 min 47 sec) 
Heartbeat CPU  0 instructions:  178000002 cycles:  126127586 heartbeat IPC: 1.16720 cumulative IPC: 1.07701 (Simulation time: 0 hr 6 min 49 sec) 
Heartbeat CPU  0 instructions:  179000001 cycles:  126980641 heartbeat IPC: 1.17226 cumulative IPC: 1.07812 (Simulation time: 0 hr 6 min 52 sec) 
Heartbeat CPU  0 instructions:  180000000 cycles:  127841085 heartbeat IPC: 1.16219 cumulative IPC: 1.07910 (Simulation time: 0 hr 6 min 54 sec) 
Heartbeat CPU  0 instructions:  181000000 cycles:  128691869 heartbeat IPC: 1.17539 cumulative IPC: 1.08019 (Simulation time: 0 hr 6 min 57 sec) 
Heartbeat CPU  0 instructions:  182000000 cycles:  129549670 heartbeat IPC: 1.16577 cumulative IPC: 1.08116 (Simulation time: 0 hr 6 min 59 sec) 
Heartbeat CPU  0 instructions:  183000003 cycles:  130413450 heartbeat IPC: 1.15771 cumulative IPC: 1.08202 (Simulation time: 0 hr 7 min 2 sec) 
Heartbeat CPU  0 instructions:  184000000 cycles:  131306913 heartbeat IPC: 1.11924 cumulative IPC: 1.08245 (Simulation time: 0 hr 7 min 4 sec) 
Heartbeat CPU  0 instructions:  185000002 cycles:  132164144 heartbeat IPC: 1.16655 cumulative IPC: 1.08336 (Simulation time: 0 hr 7 min 7 sec) 
Heartbeat CPU  0 instructions:  186000003 cycles:  133014967 heartbeat IPC: 1.17533 cumulative IPC: 1.08435 (Simulation time: 0 hr 7 min 9 sec) 
Heartbeat CPU  0 instructions:  187000003 cycles:  133869696 heartbeat IPC: 1.16996 cumulative IPC: 1.08526 (Simulation time: 0 hr 7 min 12 sec) 
Heartbeat CPU  0 instructions:  188000000 cycles:  134724094 heartbeat IPC: 1.17041 cumulative IPC: 1.08616 (Simulation time: 0 hr 7 min 14 sec) 
Heartbeat CPU  0 instructions:  189000001 cycles:  135581225 heartbeat IPC: 1.16668 cumulative IPC: 1.08701 (Simulation time: 0 hr 7 min 17 sec) 
Heartbeat CPU  0 instructions:  190000003 cycles:  136426017 heartbeat IPC: 1.18373 cumulative IPC: 1.08799 (Simulation time: 0 hr 7 min 19 sec) 
Heartbeat CPU  0 instructions:  191000001 cycles:  137283062 heartbeat IPC: 1.16680 cumulative IPC: 1.08880 (Simulation time: 0 hr 7 min 22 sec) 
Heartbeat CPU  0 instructions:  192000000 cycles:  138134355 heartbeat IPC: 1.17468 cumulative IPC: 1.08967 (Simulation time: 0 hr 7 min 24 sec) 
Heartbeat CPU  0 instructions:  193000000 cycles:  138991775 heartbeat IPC: 1.16629 cumulative IPC: 1.09044 (Simulation time: 0 hr 7 min 27 sec) 
Heartbeat CPU  0 instructions:  194000003 cycles:  139883398 heartbeat IPC: 1.12155 cumulative IPC: 1.09076 (Simulation time: 0 hr 7 min 29 sec) 
Heartbeat CPU  0 instructions:  195000002 cycles:  140734399 heartbeat IPC: 1.17509 cumulative IPC: 1.09158 (Simulation time: 0 hr 7 min 32 sec) 
Heartbeat CPU  0 instructions:  196000000 cycles:  141588050 heartbeat IPC: 1.17144 cumulative IPC: 1.09236 (Simulation time: 0 hr 7 min 34 sec) 
Heartbeat CPU  0 instructions:  197000000 cycles:  142443011 heartbeat IPC: 1.16964 cumulative IPC: 1.09310 (Simulation time: 0 hr 7 min 37 sec) 
Heartbeat CPU  0 instructions:  198000001 cycles:  143291898 heartbeat IPC: 1.17801 cumulative IPC: 1.09391 (Simulation time: 0 hr 7 min 39 sec) 
Heartbeat CPU  0 instructions:  199000003 cycles:  144151099 heartbeat IPC: 1.16387 cumulative IPC: 1.09457 (Simulation time: 0 hr 7 min 42 sec) 
Heartbeat CPU  0 instructions:  200000000 cycles:  145003955 heartbeat IPC: 1.17253 cumulative IPC: 1.09530 (Simulation time: 0 hr 7 min 44 sec) 
Heartbeat CPU  0 instructions:  201000002 cycles:  145850572 heartbeat IPC: 1.18117 cumulative IPC: 1.09609 (Simulation time: 0 hr 7 min 47 sec) 
Heartbeat CPU  0 instructions:  202000000 cycles:  146706868 heartbeat IPC: 1.16782 cumulative IPC: 1.09675 (Simulation time: 0 hr 7 min 49 sec) 
Heartbeat CPU  0 instructions:  203000000 cycles:  147554965 heartbeat IPC: 1.17911 cumulative IPC: 1.09750 (Simulation time: 0 hr 7 min 52 sec) 
Heartbeat CPU  0 instructions:  204000000 cycles:  148419183 heartbeat IPC: 1.15712 cumulative IPC: 1.09804 (Simulation time: 0 hr 7 min 54 sec) 
Heartbeat CPU  0 instructions:  205000000 cycles:  149319916 heartbeat IPC: 1.11021 cumulative IPC: 1.09815 (Simulation time: 0 hr 7 min 57 sec) 
Heartbeat CPU  0 instructions:  206000003 cycles:  150174160 heartbeat IPC: 1.17063 cumulative IPC: 1.09880 (Simulation time: 0 hr 7 min 59 sec) 
Heartbeat CPU  0 instructions:  207000003 cycles:  151034681 heartbeat IPC: 1.16209 cumulative IPC: 1.09936 (Simulation time: 0 hr 8 min 2 sec) 
Heartbeat CPU  0 instructions:  208000000 cycles:  151897396 heartbeat IPC: 1.15913 cumulative IPC: 1.09988 (Simulation time: 0 hr 8 min 4 sec) 
Heartbeat CPU  0 instructions:  209000000 cycles:  152752459 heartbeat IPC: 1.16950 cumulative IPC: 1.10048 (Simulation time: 0 hr 8 min 6 sec) 
Heartbeat CPU  0 instructions:  210000003 cycles:  153613619 heartbeat IPC: 1.16123 cumulative IPC: 1.10100 (Simulation time: 0 hr 8 min 9 sec) 
Heartbeat CPU  0 instructions:  211000002 cycles:  154475017 heartbeat IPC: 1.16090 cumulative IPC: 1.10152 (Simulation time: 0 hr 8 min 11 sec) 
Heartbeat CPU  0 instructions:  212000000 cycles:  155333408 heartbeat IPC: 1.16497 cumulative IPC: 1.10205 (Simulation time: 0 hr 8 min 14 sec) 
Heartbeat CPU  0 instructions:  213000002 cycles:  156197440 heartbeat IPC: 1.15737 cumulative IPC: 1.10252 (Simulation time: 0 hr 8 min 16 sec) 
Heartbeat CPU  0 instructions:  214000001 cycles:  157057556 heartbeat IPC: 1.16263 cumulative IPC: 1.10302 (Simulation time: 0 hr 8 min 19 sec) 
Heartbeat CPU  0 instructions:  215000002 cycles:  157947142 heartbeat IPC: 1.12412 cumulative IPC: 1.10320 (Simulation time: 0 hr 8 min 21 sec) 
Heartbeat CPU  0 instructions:  216000000 cycles:  158813340 heartbeat IPC: 1.15447 cumulative IPC: 1.10362 (Simulation time: 0 hr 8 min 24 sec) 
Heartbeat CPU  0 instructions:  217000002 cycles:  159672263 heartbeat IPC: 1.16425 cumulative IPC: 1.10411 (Simulation time: 0 hr 8 min 26 sec) 
Heartbeat CPU  0 instructions:  218000000 cycles:  160532285 heartbeat IPC: 1.16276 cumulative IPC: 1.10459 (Simulation time: 0 hr 8 min 29 sec) 
Heartbeat CPU  0 instructions:  219000002 cycles:  161390236 heartbeat IPC: 1.16557 cumulative IPC: 1.10507 (Simulation time: 0 hr 8 min 31 sec) 
Heartbeat CPU  0 instructions:  220000000 cycles:  162242298 heartbeat IPC: 1.17362 cumulative IPC: 1.10561 (Simulation time: 0 hr 8 min 34 sec) 
Heartbeat CPU  0 instructions:  221000002 cycles:  163097910 heartbeat IPC: 1.16876 cumulative IPC: 1.10610 (Simulation time: 0 hr 8 min 36 sec) 
Heartbeat CPU  0 instructions:  222000000 cycles:  163946073 heartbeat IPC: 1.17902 cumulative IPC: 1.10666 (Simulation time: 0 hr 8 min 39 sec) 
Heartbeat CPU  0 instructions:  223000002 cycles:  164801796 heartbeat IPC: 1.16860 cumulative IPC: 1.10714 (Simulation time: 0 hr 8 min 41 sec) 
Heartbeat CPU  0 instructions:  224000000 cycles:  165658764 heartbeat IPC: 1.16690 cumulative IPC: 1.10760 (Simulation time: 0 hr 8 min 44 sec) 
Heartbeat CPU  0 instructions:  225000000 cycles:  166547768 heartbeat IPC: 1.12485 cumulative IPC: 1.10773 (Simulation time: 0 hr 8 min 46 sec) 
Heartbeat CPU  0 instructions:  226000000 cycles:  167406756 heartbeat IPC: 1.16416 cumulative IPC: 1.10816 (Simulation time: 0 hr 8 min 49 sec) 
Heartbeat CPU  0 instructions:  227000001 cycles:  168259963 heartbeat IPC: 1.17205 cumulative IPC: 1.10864 (Simulation time: 0 hr 8 min 51 sec) 
Heartbeat CPU  0 instructions:  228000000 cycles:  169113439 heartbeat IPC: 1.17168 cumulative IPC: 1.10910 (Simulation time: 0 hr 8 min 54 sec) 
Heartbeat CPU  0 instructions:  229000001 cycles:  169971366 heartbeat IPC: 1.16560 cumulative IPC: 1.10952 (Simulation time: 0 hr 8 min 56 sec) 
Heartbeat CPU  0 instructions:  230000001 cycles:  170827683 heartbeat IPC: 1.16779 cumulative IPC: 1.10995 (Simulation time: 0 hr 8 min 59 sec) 
Heartbeat CPU  0 instructions:  231000002 cycles:  171677621 heartbeat IPC: 1.17656 cumulative IPC: 1.11043 (Simulation time: 0 hr 9 min 1 sec) 
Heartbeat CPU  0 instructions:  232000000 cycles:  172530797 heartbeat IPC: 1.17209 cumulative IPC: 1.11087 (Simulation time: 0 hr 9 min 4 sec) 
Heartbeat CPU  0 instructions:  233000000 cycles:  173380668 heartbeat IPC: 1.17665 cumulative IPC: 1.11134 (Simulation time: 0 hr 9 min 6 sec) 
Heartbeat CPU  0 instructions:  234000001 cycles:  174235125 heartbeat IPC: 1.17034 cumulative IPC: 1.11175 (Simulation time: 0 hr 9 min 8 sec) 
Heartbeat CPU  0 instructions:  235000001 cycles:  175091518 heartbeat IPC: 1.16769 cumulative IPC: 1.11215 (Simulation time: 0 hr 9 min 11 sec) 
Heartbeat CPU  0 instructions:  236000000 cycles:  175992535 heartbeat IPC: 1.10986 cumulative IPC: 1.11213 (Simulation time: 0 hr 9 min 13 sec) 
Heartbeat CPU  0 instructions:  237000000 cycles:  176850345 heartbeat IPC: 1.16576 cumulative IPC: 1.11251 (Simulation time: 0 hr 9 min 16 sec) 
Heartbeat CPU  0 instructions:  238000000 cycles:  177704156 heartbeat IPC: 1.17122 cumulative IPC: 1.11291 (Simulation time: 0 hr 9 min 18 sec) 
Heartbeat CPU  0 instructions:  239000003 cycles:  178551566 heartbeat IPC: 1.18007 cumulative IPC: 1.11337 (Simulation time: 0 hr 9 min 21 sec) 
Heartbeat CPU  0 instructions:  240000000 cycles:  179403879 heartbeat IPC: 1.17327 cumulative IPC: 1.11377 (Simulation time: 0 hr 9 min 23 sec) 
Heartbeat CPU  0 instructions:  241000001 cycles:  180257520 heartbeat IPC: 1.17145 cumulative IPC: 1.11416 (Simulation time: 0 hr 9 min 26 sec) 
Heartbeat CPU  0 instructions:  242000001 cycles:  181110385 heartbeat IPC: 1.17252 cumulative IPC: 1.11455 (Simulation time: 0 hr 9 min 28 sec) 
Heartbeat CPU  0 instructions:  243000001 cycles:  181959424 heartbeat IPC: 1.17780 cumulative IPC: 1.11497 (Simulation time: 0 hr 9 min 31 sec) 
Heartbeat CPU  0 instructions:  244000000 cycles:  182815061 heartbeat IPC: 1.16872 cumulative IPC: 1.11533 (Simulation time: 0 hr 9 min 33 sec) 
Heartbeat CPU  0 instructions:  245000002 cycles:  183661127 heartbeat IPC: 1.18194 cumulative IPC: 1.11576 (Simulation time: 0 hr 9 min 36 sec) 
Heartbeat CPU  0 instructions:  246000003 cycles:  184553349 heartbeat IPC: 1.12080 cumulative IPC: 1.11579 (Simulation time: 0 hr 9 min 38 sec) 
Heartbeat CPU  0 instructions:  247000003 cycles:  185423952 heartbeat IPC: 1.14863 cumulative IPC: 1.11601 (Simulation time: 0 hr 9 min 41 sec) 
Heartbeat CPU  0 instructions:  248000000 cycles:  186271500 heartbeat IPC: 1.17987 cumulative IPC: 1.11642 (Simulation time: 0 hr 9 min 43 sec) 
Heartbeat CPU  0 instructions:  249000003 cycles:  187128004 heartbeat IPC: 1.16754 cumulative IPC: 1.11675 (Simulation time: 0 hr 9 min 46 sec) 
Heartbeat CPU  0 instructions:  250000003 cycles:  187978329 heartbeat IPC: 1.17602 cumulative IPC: 1.11712 (Simulation time: 0 hr 9 min 48 sec) 
Heartbeat CPU  0 instructions:  251000003 cycles:  188836234 heartbeat IPC: 1.16563 cumulative IPC: 1.11743 (Simulation time: 0 hr 9 min 51 sec) 
Heartbeat CPU  0 instructions:  252000000 cycles:  189690161 heartbeat IPC: 1.17106 cumulative IPC: 1.11777 (Simulation time: 0 hr 9 min 53 sec) 
Heartbeat CPU  0 instructions:  253000001 cycles:  190544734 heartbeat IPC: 1.17018 cumulative IPC: 1.11810 (Simulation time: 0 hr 9 min 56 sec) 
Heartbeat CPU  0 instructions:  254000000 cycles:  191390594 heartbeat IPC: 1.18223 cumulative IPC: 1.11849 (Simulation time: 0 hr 9 min 58 sec) 
Heartbeat CPU  0 instructions:  255000002 cycles:  192245463 heartbeat IPC: 1.16977 cumulative IPC: 1.11881 (Simulation time: 0 hr 10 min 0 sec) 
Heartbeat CPU  0 instructions:  256000000 cycles:  193095319 heartbeat IPC: 1.17667 cumulative IPC: 1.11916 (Simulation time: 0 hr 10 min 3 sec) 
Heartbeat CPU  0 instructions:  257000002 cycles:  193976958 heartbeat IPC: 1.13425 cumulative IPC: 1.11925 (Simulation time: 0 hr 10 min 5 sec) 
Heartbeat CPU  0 instructions:  258000003 cycles:  194833189 heartbeat IPC: 1.16791 cumulative IPC: 1.11955 (Simulation time: 0 hr 10 min 8 sec) 
Heartbeat CPU  0 instructions:  259000002 cycles:  195677579 heartbeat IPC: 1.18429 cumulative IPC: 1.11993 (Simulation time: 0 hr 10 min 10 sec) 
Heartbeat CPU  0 instructions:  260000000 cycles:  196534545 heartbeat IPC: 1.16691 cumulative IPC: 1.12022 (Simulation time: 0 hr 10 min 13 sec) 
Heartbeat CPU  0 instructions:  261000001 cycles:  197385672 heartbeat IPC: 1.17491 cumulative IPC: 1.12054 (Simulation time: 0 hr 10 min 15 sec) 
Heartbeat CPU  0 instructions:  262000002 cycles:  198239098 heartbeat IPC: 1.17175 cumulative IPC: 1.12084 (Simulation time: 0 hr 10 min 18 sec) 
Heartbeat CPU  0 instructions:  263000001 cycles:  199094743 heartbeat IPC: 1.16871 cumulative IPC: 1.12112 (Simulation time: 0 hr 10 min 20 sec) 
Heartbeat CPU  0 instructions:  264000000 cycles:  199950841 heartbeat IPC: 1.16809 cumulative IPC: 1.12140 (Simulation time: 0 hr 10 min 23 sec) 
Heartbeat CPU  0 instructions:  265000002 cycles:  200795465 heartbeat IPC: 1.18396 cumulative IPC: 1.12176 (Simulation time: 0 hr 10 min 25 sec) 
Heartbeat CPU  0 instructions:  266000000 cycles:  201650507 heartbeat IPC: 1.16953 cumulative IPC: 1.12203 (Simulation time: 0 hr 10 min 28 sec) 
Heartbeat CPU  0 instructions:  267000002 cycles:  202513855 heartbeat IPC: 1.15828 cumulative IPC: 1.12224 (Simulation time: 0 hr 10 min 30 sec) 
Heartbeat CPU  0 instructions:  268000000 cycles:  203889548 heartbeat IPC: 0.72690 cumulative IPC: 1.11862 (Simulation time: 0 hr 10 min 33 sec) 
Heartbeat CPU  0 instructions:  269000002 cycles:  205485738 heartbeat IPC: 0.62649 cumulative IPC: 1.11345 (Simulation time: 0 hr 10 min 35 sec) 
Heartbeat CPU  0 instructions:  270000003 cycles:  206456568 heartbeat IPC: 1.03005 cumulative IPC: 1.11292 (Simulation time: 0 hr 10 min 38 sec) 
Heartbeat CPU  0 instructions:  271000001 cycles:  207438776 heartbeat IPC: 1.01811 cumulative IPC: 1.11231 (Simulation time: 0 hr 10 min 41 sec) 
Heartbeat CPU  0 instructions:  272000000 cycles:  208402920 heartbeat IPC: 1.03719 cumulative IPC: 1.11184 (Simulation time: 0 hr 10 min 43 sec) 
Heartbeat CPU  0 instructions:  273000002 cycles:  209383163 heartbeat IPC: 1.02016 cumulative IPC: 1.11127 (Simulation time: 0 hr 10 min 46 sec) 
Heartbeat CPU  0 instructions:  274000003 cycles:  210352824 heartbeat IPC: 1.03129 cumulative IPC: 1.11077 (Simulation time: 0 hr 10 min 48 sec) 
Heartbeat CPU  0 instructions:  275000000 cycles:  211323119 heartbeat IPC: 1.03061 cumulative IPC: 1.11028 (Simulation time: 0 hr 10 min 51 sec) 
Heartbeat CPU  0 instructions:  276000000 cycles:  212300979 heartbeat IPC: 1.02264 cumulative IPC: 1.10974 (Simulation time: 0 hr 10 min 53 sec) 
Heartbeat CPU  0 instructions:  277000003 cycles:  213270311 heartbeat IPC: 1.03164 cumulative IPC: 1.10926 (Simulation time: 0 hr 10 min 56 sec) 
Heartbeat CPU  0 instructions:  278000003 cycles:  214249092 heartbeat IPC: 1.02168 cumulative IPC: 1.10873 (Simulation time: 0 hr 10 min 58 sec) 
Heartbeat CPU  0 instructions:  279000001 cycles:  215216993 heartbeat IPC: 1.03316 cumulative IPC: 1.10828 (Simulation time: 0 hr 11 min 1 sec) 
Heartbeat CPU  0 instructions:  280000000 cycles:  216196169 heartbeat IPC: 1.02127 cumulative IPC: 1.10775 (Simulation time: 0 hr 11 min 3 sec) 
Heartbeat CPU  0 instructions:  281000001 cycles:  217151906 heartbeat IPC: 1.04631 cumulative IPC: 1.10739 (Simulation time: 0 hr 11 min 6 sec) 
Heartbeat CPU  0 instructions:  282000003 cycles:  218115488 heartbeat IPC: 1.03780 cumulative IPC: 1.10698 (Simulation time: 0 hr 11 min 9 sec) 
Heartbeat CPU  0 instructions:  283000000 cycles:  219075824 heartbeat IPC: 1.04130 cumulative IPC: 1.10660 (Simulation time: 0 hr 11 min 11 sec) 
Heartbeat CPU  0 instructions:  284000000 cycles:  220042405 heartbeat IPC: 1.03457 cumulative IPC: 1.10618 (Simulation time: 0 hr 11 min 14 sec) 
Heartbeat CPU  0 instructions:  285000002 cycles:  221004586 heartbeat IPC: 1.03931 cumulative IPC: 1.10580 (Simulation time: 0 hr 11 min 16 sec) 
Heartbeat CPU  0 instructions:  286000000 cycles:  221965944 heartbeat IPC: 1.04019 cumulative IPC: 1.10543 (Simulation time: 0 hr 11 min 19 sec) 
Heartbeat CPU  0 instructions:  287000000 cycles:  222935469 heartbeat IPC: 1.03143 cumulative IPC: 1.10500 (Simulation time: 0 hr 11 min 21 sec) 
Heartbeat CPU  0 instructions:  288000000 cycles:  223897560 heartbeat IPC: 1.03940 cumulative IPC: 1.10463 (Simulation time: 0 hr 11 min 24 sec) 
Heartbeat CPU  0 instructions:  289000003 cycles:  224860150 heartbeat IPC: 1.03887 cumulative IPC: 1.10426 (Simulation time: 0 hr 11 min 26 sec) 
Heartbeat CPU  0 instructions:  290000000 cycles:  225812136 heartbeat IPC: 1.05043 cumulative IPC: 1.10396 (Simulation time: 0 hr 11 min 29 sec) 
Heartbeat CPU  0 instructions:  291000000 cycles:  226771156 heartbeat IPC: 1.04273 cumulative IPC: 1.10362 (Simulation time: 0 hr 11 min 32 sec) 
Heartbeat CPU  0 instructions:  292000000 cycles:  227727309 heartbeat IPC: 1.04586 cumulative IPC: 1.10331 (Simulation time: 0 hr 11 min 34 sec) 
Heartbeat CPU  0 instructions:  293000000 cycles:  228686922 heartbeat IPC: 1.04209 cumulative IPC: 1.10297 (Simulation time: 0 hr 11 min 37 sec) 
Heartbeat CPU  0 instructions:  294000002 cycles:  229643970 heartbeat IPC: 1.04488 cumulative IPC: 1.10265 (Simulation time: 0 hr 11 min 39 sec) 
Heartbeat CPU  0 instructions:  295000002 cycles:  230597174 heartbeat IPC: 1.04909 cumulative IPC: 1.10237 (Simulation time: 0 hr 11 min 42 sec) 
Heartbeat CPU  0 instructions:  296000000 cycles:  231553178 heartbeat IPC: 1.04602 cumulative IPC: 1.10206 (Simulation time: 0 hr 11 min 44 sec) 
Heartbeat CPU  0 instructions:  297000001 cycles:  232508719 heartbeat IPC: 1.04653 cumulative IPC: 1.10177 (Simulation time: 0 hr 11 min 47 sec) 
Heartbeat CPU  0 instructions:  298000000 cycles:  233468355 heartbeat IPC: 1.04206 cumulative IPC: 1.10145 (Simulation time: 0 hr 11 min 49 sec) 
Heartbeat CPU  0 instructions:  299000003 cycles:  234418687 heartbeat IPC: 1.05227 cumulative IPC: 1.10119 (Simulation time: 0 hr 11 min 52 sec) 
Heartbeat CPU  0 instructions:  300000000 cycles:  235374226 heartbeat IPC: 1.04653 cumulative IPC: 1.10090 (Simulation time: 0 hr 11 min 54 sec) 
Heartbeat CPU  0 instructions:  301000002 cycles:  236329205 heartbeat IPC: 1.04715 cumulative IPC: 1.10062 (Simulation time: 0 hr 11 min 57 sec) 
Heartbeat CPU  0 instructions:  302000002 cycles:  237286409 heartbeat IPC: 1.04471 cumulative IPC: 1.10033 (Simulation time: 0 hr 12 min 0 sec) 
Heartbeat CPU  0 instructions:  303000001 cycles:  238241139 heartbeat IPC: 1.04742 cumulative IPC: 1.10005 (Simulation time: 0 hr 12 min 2 sec) 
Heartbeat CPU  0 instructions:  304000000 cycles:  239197773 heartbeat IPC: 1.04533 cumulative IPC: 1.09977 (Simulation time: 0 hr 12 min 5 sec) 
Heartbeat CPU  0 instructions:  305000000 cycles:  240152178 heartbeat IPC: 1.04777 cumulative IPC: 1.09951 (Simulation time: 0 hr 12 min 7 sec) 
Heartbeat CPU  0 instructions:  306000001 cycles:  241102175 heartbeat IPC: 1.05264 cumulative IPC: 1.09927 (Simulation time: 0 hr 12 min 10 sec) 
Heartbeat CPU  0 instructions:  307000003 cycles:  242054318 heartbeat IPC: 1.05026 cumulative IPC: 1.09902 (Simulation time: 0 hr 12 min 12 sec) 
Heartbeat CPU  0 instructions:  308000000 cycles:  243007810 heartbeat IPC: 1.04877 cumulative IPC: 1.09877 (Simulation time: 0 hr 12 min 15 sec) 
Heartbeat CPU  0 instructions:  309000000 cycles:  243955633 heartbeat IPC: 1.05505 cumulative IPC: 1.09855 (Simulation time: 0 hr 12 min 17 sec) 
Heartbeat CPU  0 instructions:  310000001 cycles:  244905132 heartbeat IPC: 1.05319 cumulative IPC: 1.09833 (Simulation time: 0 hr 12 min 20 sec) 
Heartbeat CPU  0 instructions:  311000001 cycles:  245853269 heartbeat IPC: 1.05470 cumulative IPC: 1.09811 (Simulation time: 0 hr 12 min 23 sec) 
Heartbeat CPU  0 instructions:  312000000 cycles:  246802787 heartbeat IPC: 1.05316 cumulative IPC: 1.09789 (Simulation time: 0 hr 12 min 25 sec) 
Heartbeat CPU  0 instructions:  313000000 cycles:  247753315 heartbeat IPC: 1.05205 cumulative IPC: 1.09766 (Simulation time: 0 hr 12 min 28 sec) 
Heartbeat CPU  0 instructions:  314000001 cycles:  248707131 heartbeat IPC: 1.04842 cumulative IPC: 1.09742 (Simulation time: 0 hr 12 min 30 sec) 
Heartbeat CPU  0 instructions:  315000000 cycles:  249661121 heartbeat IPC: 1.04823 cumulative IPC: 1.09718 (Simulation time: 0 hr 12 min 33 sec) 
Heartbeat CPU  0 instructions:  316000000 cycles:  250615632 heartbeat IPC: 1.04766 cumulative IPC: 1.09694 (Simulation time: 0 hr 12 min 35 sec) 
Heartbeat CPU  0 instructions:  317000001 cycles:  251570630 heartbeat IPC: 1.04712 cumulative IPC: 1.09670 (Simulation time: 0 hr 12 min 38 sec) 
Heartbeat CPU  0 instructions:  318000001 cycles:  252524396 heartbeat IPC: 1.04848 cumulative IPC: 1.09647 (Simulation time: 0 hr 12 min 40 sec) 
Heartbeat CPU  0 instructions:  319000002 cycles:  253481986 heartbeat IPC: 1.04429 cumulative IPC: 1.09622 (Simulation time: 0 hr 12 min 43 sec) 
Heartbeat CPU  0 instructions:  320000000 cycles:  254439981 heartbeat IPC: 1.04384 cumulative IPC: 1.09597 (Simulation time: 0 hr 12 min 45 sec) 
Heartbeat CPU  0 instructions:  321000000 cycles:  255394112 heartbeat IPC: 1.04807 cumulative IPC: 1.09575 (Simulation time: 0 hr 12 min 48 sec) 
Heartbeat CPU  0 instructions:  322000001 cycles:  256349122 heartbeat IPC: 1.04711 cumulative IPC: 1.09552 (Simulation time: 0 hr 12 min 51 sec) 
Heartbeat CPU  0 instructions:  323000000 cycles:  257298174 heartbeat IPC: 1.05368 cumulative IPC: 1.09532 (Simulation time: 0 hr 12 min 53 sec) 
Heartbeat CPU  0 instructions:  324000000 cycles:  258249959 heartbeat IPC: 1.05066 cumulative IPC: 1.09511 (Simulation time: 0 hr 12 min 56 sec) 
Heartbeat CPU  0 instructions:  325000001 cycles:  259203832 heartbeat IPC: 1.04836 cumulative IPC: 1.09490 (Simulation time: 0 hr 12 min 58 sec) 
Heartbeat CPU  0 instructions:  326000000 cycles:  260157669 heartbeat IPC: 1.04840 cumulative IPC: 1.09468 (Simulation time: 0 hr 13 min 1 sec) 
Heartbeat CPU  0 instructions:  327000001 cycles:  261112360 heartbeat IPC: 1.04746 cumulative IPC: 1.09446 (Simulation time: 0 hr 13 min 3 sec) 
Heartbeat CPU  0 instructions:  328000000 cycles:  262066382 heartbeat IPC: 1.04819 cumulative IPC: 1.09425 (Simulation time: 0 hr 13 min 6 sec) 
Heartbeat CPU  0 instructions:  329000001 cycles:  263021550 heartbeat IPC: 1.04694 cumulative IPC: 1.09404 (Simulation time: 0 hr 13 min 8 sec) 
Heartbeat CPU  0 instructions:  330000000 cycles:  264635873 heartbeat IPC: 0.61945 cumulative IPC: 1.09040 (Simulation time: 0 hr 13 min 11 sec) 
Heartbeat CPU  0 instructions:  331000000 cycles:  265504867 heartbeat IPC: 1.15076 cumulative IPC: 1.09065 (Simulation time: 0 hr 13 min 14 sec) 
Heartbeat CPU  0 instructions:  332000000 cycles:  266376876 heartbeat IPC: 1.14678 cumulative IPC: 1.09088 (Simulation time: 0 hr 13 min 16 sec) 
Heartbeat CPU  0 instructions:  333000001 cycles:  267247274 heartbeat IPC: 1.14890 cumulative IPC: 1.09112 (Simulation time: 0 hr 13 min 18 sec) 
Heartbeat CPU  0 instructions:  334000002 cycles:  268119247 heartbeat IPC: 1.14683 cumulative IPC: 1.09134 (Simulation time: 0 hr 13 min 21 sec) 
Heartbeat CPU  0 instructions:  335000002 cycles:  268993243 heartbeat IPC: 1.14417 cumulative IPC: 1.09156 (Simulation time: 0 hr 13 min 23 sec) 
Heartbeat CPU  0 instructions:  336000000 cycles:  269863115 heartbeat IPC: 1.14959 cumulative IPC: 1.09179 (Simulation time: 0 hr 13 min 25 sec) 
Heartbeat CPU  0 instructions:  337000003 cycles:  270735599 heartbeat IPC: 1.14616 cumulative IPC: 1.09201 (Simulation time: 0 hr 13 min 28 sec) 
Heartbeat CPU  0 instructions:  338000000 cycles:  271603889 heartbeat IPC: 1.15169 cumulative IPC: 1.09225 (Simulation time: 0 hr 13 min 30 sec) 
Heartbeat CPU  0 instructions:  339000003 cycles:  273245836 heartbeat IPC: 0.60903 cumulative IPC: 1.08864 (Simulation time: 0 hr 13 min 33 sec) 
Heartbeat CPU  0 instructions:  340000000 cycles:  274101960 heartbeat IPC: 1.16805 cumulative IPC: 1.08894 (Simulation time: 0 hr 13 min 35 sec) 
Heartbeat CPU  0 instructions:  341000000 cycles:  274958505 heartbeat IPC: 1.16748 cumulative IPC: 1.08925 (Simulation time: 0 hr 13 min 37 sec) 
Heartbeat CPU  0 instructions:  342000000 cycles:  275822813 heartbeat IPC: 1.15699 cumulative IPC: 1.08951 (Simulation time: 0 hr 13 min 40 sec) 
Heartbeat CPU  0 instructions:  343000003 cycles:  276679230 heartbeat IPC: 1.16766 cumulative IPC: 1.08981 (Simulation time: 0 hr 13 min 42 sec) 
Heartbeat CPU  0 instructions:  344000000 cycles:  277540462 heartbeat IPC: 1.16112 cumulative IPC: 1.09009 (Simulation time: 0 hr 13 min 44 sec) 
Heartbeat CPU  0 instructions:  345000000 cycles:  278395301 heartbeat IPC: 1.16981 cumulative IPC: 1.09039 (Simulation time: 0 hr 13 min 47 sec) 
Heartbeat CPU  0 instructions:  346000003 cycles:  279253345 heartbeat IPC: 1.16544 cumulative IPC: 1.09067 (Simulation time: 0 hr 13 min 49 sec) 
Heartbeat CPU  0 instructions:  347000002 cycles:  280109172 heartbeat IPC: 1.16846 cumulative IPC: 1.09097 (Simulation time: 0 hr 13 min 51 sec) 
Heartbeat CPU  0 instructions:  348000000 cycles:  281776829 heartbeat IPC: 0.59964 cumulative IPC: 1.08738 (Simulation time: 0 hr 13 min 54 sec) 
Heartbeat CPU  0 instructions:  349000000 cycles:  282654461 heartbeat IPC: 1.13943 cumulative IPC: 1.08758 (Simulation time: 0 hr 13 min 57 sec) 
Heartbeat CPU  0 instructions:  350000003 cycles:  283549981 heartbeat IPC: 1.11667 cumulative IPC: 1.08769 (Simulation time: 0 hr 13 min 59 sec) 
Heartbeat CPU  0 instructions:  351000003 cycles:  284441641 heartbeat IPC: 1.12150 cumulative IPC: 1.08782 (Simulation time: 0 hr 14 min 1 sec) 
Heartbeat CPU  0 instructions:  352000000 cycles:  285330529 heartbeat IPC: 1.12500 cumulative IPC: 1.08796 (Simulation time: 0 hr 14 min 4 sec) 
Heartbeat CPU  0 instructions:  353000000 cycles:  286220490 heartbeat IPC: 1.12364 cumulative IPC: 1.08810 (Simulation time: 0 hr 14 min 6 sec) 
Heartbeat CPU  0 instructions:  354000000 cycles:  287108481 heartbeat IPC: 1.12614 cumulative IPC: 1.08824 (Simulation time: 0 hr 14 min 8 sec) 
Heartbeat CPU  0 instructions:  355000001 cycles:  287990664 heartbeat IPC: 1.13355 cumulative IPC: 1.08841 (Simulation time: 0 hr 14 min 11 sec) 
Heartbeat CPU  0 instructions:  356000000 cycles:  289179639 heartbeat IPC: 0.84106 cumulative IPC: 1.08717 (Simulation time: 0 hr 14 min 13 sec) 
Heartbeat CPU  0 instructions:  357000003 cycles:  290582569 heartbeat IPC: 0.71280 cumulative IPC: 1.08495 (Simulation time: 0 hr 14 min 17 sec) 
Heartbeat CPU  0 instructions:  358000000 cycles:  291684247 heartbeat IPC: 0.90770 cumulative IPC: 1.08413 (Simulation time: 0 hr 14 min 19 sec) 
Heartbeat CPU  0 instructions:  359000002 cycles:  292782271 heartbeat IPC: 0.91073 cumulative IPC: 1.08333 (Simulation time: 0 hr 14 min 22 sec) 
Heartbeat CPU  0 instructions:  360000000 cycles:  293909619 heartbeat IPC: 0.88704 cumulative IPC: 1.08241 (Simulation time: 0 hr 14 min 25 sec) 
Heartbeat CPU  0 instructions:  361000000 cycles:  295008779 heartbeat IPC: 0.90979 cumulative IPC: 1.08162 (Simulation time: 0 hr 14 min 28 sec) 
Heartbeat CPU  0 instructions:  362000000 cycles:  296110921 heartbeat IPC: 0.90732 cumulative IPC: 1.08083 (Simulation time: 0 hr 14 min 31 sec) 
Heartbeat CPU  0 instructions:  363000001 cycles:  297207126 heartbeat IPC: 0.91224 cumulative IPC: 1.08007 (Simulation time: 0 hr 14 min 34 sec) 
Heartbeat CPU  0 instructions:  364000000 cycles:  298307397 heartbeat IPC: 0.90887 cumulative IPC: 1.07930 (Simulation time: 0 hr 14 min 37 sec) 
Heartbeat CPU  0 instructions:  365000002 cycles:  299436858 heartbeat IPC: 0.88538 cumulative IPC: 1.07841 (Simulation time: 0 hr 14 min 40 sec) 
Heartbeat CPU  0 instructions:  366000001 cycles:  300540301 heartbeat IPC: 0.90625 cumulative IPC: 1.07764 (Simulation time: 0 hr 14 min 42 sec) 
Heartbeat CPU  0 instructions:  367000001 cycles:  301640286 heartbeat IPC: 0.90910 cumulative IPC: 1.07689 (Simulation time: 0 hr 14 min 45 sec) 
Heartbeat CPU  0 instructions:  368000000 cycles:  302740915 heartbeat IPC: 0.90857 cumulative IPC: 1.07615 (Simulation time: 0 hr 14 min 48 sec) 
Heartbeat CPU  0 instructions:  369000001 cycles:  303870478 heartbeat IPC: 0.88530 cumulative IPC: 1.07529 (Simulation time: 0 hr 14 min 51 sec) 
Heartbeat CPU  0 instructions:  370000002 cycles:  304971364 heartbeat IPC: 0.90836 cumulative IPC: 1.07456 (Simulation time: 0 hr 14 min 54 sec) 
Heartbeat CPU  0 instructions:  371000002 cycles:  306070897 heartbeat IPC: 0.90948 cumulative IPC: 1.07384 (Simulation time: 0 hr 14 min 57 sec) 
Heartbeat CPU  0 instructions:  372000000 cycles:  307165407 heartbeat IPC: 0.91365 cumulative IPC: 1.07315 (Simulation time: 0 hr 14 min 59 sec) 
Heartbeat CPU  0 instructions:  373000000 cycles:  308293137 heartbeat IPC: 0.88674 cumulative IPC: 1.07232 (Simulation time: 0 hr 15 min 2 sec) 
Heartbeat CPU  0 instructions:  374000003 cycles:  309388455 heartbeat IPC: 0.91298 cumulative IPC: 1.07164 (Simulation time: 0 hr 15 min 5 sec) 
Heartbeat CPU  0 instructions:  375000002 cycles:  310494578 heartbeat IPC: 0.90406 cumulative IPC: 1.07092 (Simulation time: 0 hr 15 min 8 sec) 
Heartbeat CPU  0 instructions:  376000000 cycles:  311596511 heartbeat IPC: 0.90749 cumulative IPC: 1.07022 (Simulation time: 0 hr 15 min 11 sec) 
Heartbeat CPU  0 instructions:  377000001 cycles:  312723743 heartbeat IPC: 0.88713 cumulative IPC: 1.06942 (Simulation time: 0 hr 15 min 14 sec) 
Heartbeat CPU  0 instructions:  378000000 cycles:  313821320 heartbeat IPC: 0.91110 cumulative IPC: 1.06875 (Simulation time: 0 hr 15 min 17 sec) 
Heartbeat CPU  0 instructions:  379000001 cycles:  314927285 heartbeat IPC: 0.90419 cumulative IPC: 1.06806 (Simulation time: 0 hr 15 min 19 sec) 
Heartbeat CPU  0 instructions:  380000000 cycles:  316029213 heartbeat IPC: 0.90750 cumulative IPC: 1.06738 (Simulation time: 0 hr 15 min 22 sec) 
Heartbeat CPU  0 instructions:  381000001 cycles:  317161835 heartbeat IPC: 0.88291 cumulative IPC: 1.06659 (Simulation time: 0 hr 15 min 25 sec) 
Heartbeat CPU  0 instructions:  382000000 cycles:  318260613 heartbeat IPC: 0.91010 cumulative IPC: 1.06594 (Simulation time: 0 hr 15 min 28 sec) 
Heartbeat CPU  0 instructions:  383000000 cycles:  319368345 heartbeat IPC: 0.90275 cumulative IPC: 1.06526 (Simulation time: 0 hr 15 min 31 sec) 
Heartbeat CPU  0 instructions:  384000000 cycles:  320465316 heartbeat IPC: 0.91160 cumulative IPC: 1.06463 (Simulation time: 0 hr 15 min 34 sec) 
Heartbeat CPU  0 instructions:  385000001 cycles:  321584209 heartbeat IPC: 0.89374 cumulative IPC: 1.06391 (Simulation time: 0 hr 15 min 36 sec) 
Heartbeat CPU  0 instructions:  386000001 cycles:  322682289 heartbeat IPC: 0.91068 cumulative IPC: 1.06329 (Simulation time: 0 hr 15 min 39 sec) 
Heartbeat CPU  0 instructions:  387000003 cycles:  323779400 heartbeat IPC: 0.91149 cumulative IPC: 1.06267 (Simulation time: 0 hr 15 min 42 sec) 
Heartbeat CPU  0 instructions:  388000000 cycles:  324882726 heartbeat IPC: 0.90635 cumulative IPC: 1.06203 (Simulation time: 0 hr 15 min 45 sec) 
Heartbeat CPU  0 instructions:  389000002 cycles:  325983488 heartbeat IPC: 0.90846 cumulative IPC: 1.06141 (Simulation time: 0 hr 15 min 48 sec) 
Heartbeat CPU  0 instructions:  390000002 cycles:  327106493 heartbeat IPC: 0.89047 cumulative IPC: 1.06071 (Simulation time: 0 hr 15 min 51 sec) 
Heartbeat CPU  0 instructions:  391000001 cycles:  328204141 heartbeat IPC: 0.91104 cumulative IPC: 1.06011 (Simulation time: 0 hr 15 min 54 sec) 
Heartbeat CPU  0 instructions:  392000000 cycles:  329302734 heartbeat IPC: 0.91025 cumulative IPC: 1.05951 (Simulation time: 0 hr 15 min 56 sec) 
Heartbeat CPU  0 instructions:  393000003 cycles:  330402924 heartbeat IPC: 0.90894 cumulative IPC: 1.05892 (Simulation time: 0 hr 15 min 59 sec) 
Heartbeat CPU  0 instructions:  394000002 cycles:  331919554 heartbeat IPC: 0.65936 cumulative IPC: 1.05674 (Simulation time: 0 hr 16 min 2 sec) 
Heartbeat CPU  0 instructions:  395000001 cycles:  332891031 heartbeat IPC: 1.02936 cumulative IPC: 1.05664 (Simulation time: 0 hr 16 min 5 sec) 
Heartbeat CPU  0 instructions:  396000000 cycles:  333777618 heartbeat IPC: 1.12792 cumulative IPC: 1.05687 (Simulation time: 0 hr 16 min 7 sec) 
Heartbeat CPU  0 instructions:  397000000 cycles:  334663444 heartbeat IPC: 1.12889 cumulative IPC: 1.05710 (Simulation time: 0 hr 16 min 10 sec) 
Heartbeat CPU  0 instructions:  398000001 cycles:  335549116 heartbeat IPC: 1.12909 cumulative IPC: 1.05732 (Simulation time: 0 hr 16 min 12 sec) 
Heartbeat CPU  0 instructions:  399000001 cycles:  336444201 heartbeat IPC: 1.11721 cumulative IPC: 1.05751 (Simulation time: 0 hr 16 min 15 sec) 
Heartbeat CPU  0 instructions:  400000000 cycles:  337327701 heartbeat IPC: 1.13186 cumulative IPC: 1.05774 (Simulation time: 0 hr 16 min 17 sec) 
Heartbeat CPU  0 instructions:  401000001 cycles:  338210369 heartbeat IPC: 1.13293 cumulative IPC: 1.05798 (Simulation time: 0 hr 16 min 20 sec) 
Heartbeat CPU  0 instructions:  402000000 cycles:  339097289 heartbeat IPC: 1.12750 cumulative IPC: 1.05819 (Simulation time: 0 hr 16 min 22 sec) 
Heartbeat CPU  0 instructions:  403000003 cycles:  340249830 heartbeat IPC: 0.86765 cumulative IPC: 1.05743 (Simulation time: 0 hr 16 min 25 sec) 
Heartbeat CPU  0 instructions:  404000000 cycles:  341149866 heartbeat IPC: 1.11106 cumulative IPC: 1.05759 (Simulation time: 0 hr 16 min 27 sec) 
Heartbeat CPU  0 instructions:  405000002 cycles:  342035176 heartbeat IPC: 1.12955 cumulative IPC: 1.05781 (Simulation time: 0 hr 16 min 30 sec) 
Heartbeat CPU  0 instructions:  406000002 cycles:  342920820 heartbeat IPC: 1.12912 cumulative IPC: 1.05803 (Simulation time: 0 hr 16 min 32 sec) 
Heartbeat CPU  0 instructions:  407000003 cycles:  343800468 heartbeat IPC: 1.13682 cumulative IPC: 1.05827 (Simulation time: 0 hr 16 min 35 sec) 
Heartbeat CPU  0 instructions:  408000000 cycles:  344671091 heartbeat IPC: 1.14860 cumulative IPC: 1.05854 (Simulation time: 0 hr 16 min 37 sec) 
Heartbeat CPU  0 instructions:  409000003 cycles:  345542022 heartbeat IPC: 1.14820 cumulative IPC: 1.05881 (Simulation time: 0 hr 16 min 40 sec) 
Heartbeat CPU  0 instructions:  410000002 cycles:  346414523 heartbeat IPC: 1.14613 cumulative IPC: 1.05907 (Simulation time: 0 hr 16 min 42 sec) 
Heartbeat CPU  0 instructions:  411000002 cycles:  347296939 heartbeat IPC: 1.13325 cumulative IPC: 1.05929 (Simulation time: 0 hr 16 min 45 sec) 
Heartbeat CPU  0 instructions:  412000000 cycles:  348176069 heartbeat IPC: 1.13749 cumulative IPC: 1.05953 (Simulation time: 0 hr 16 min 47 sec) 
Heartbeat CPU  0 instructions:  413000000 cycles:  349010810 heartbeat IPC: 1.19798 cumulative IPC: 1.05992 (Simulation time: 0 hr 16 min 50 sec) 
Heartbeat CPU  0 instructions:  414000002 cycles:  349814988 heartbeat IPC: 1.24351 cumulative IPC: 1.06042 (Simulation time: 0 hr 16 min 52 sec) 
Heartbeat CPU  0 instructions:  415000002 cycles:  350724900 heartbeat IPC: 1.09901 cumulative IPC: 1.06053 (Simulation time: 0 hr 16 min 55 sec) 
Heartbeat CPU  0 instructions:  416000000 cycles:  351605029 heartbeat IPC: 1.13619 cumulative IPC: 1.06076 (Simulation time: 0 hr 16 min 57 sec) 
Heartbeat CPU  0 instructions:  417000000 cycles:  352487669 heartbeat IPC: 1.13296 cumulative IPC: 1.06097 (Simulation time: 0 hr 17 min 0 sec) 
Heartbeat CPU  0 instructions:  418000002 cycles:  353365037 heartbeat IPC: 1.13977 cumulative IPC: 1.06120 (Simulation time: 0 hr 17 min 2 sec) 
Heartbeat CPU  0 instructions:  419000002 cycles:  354240409 heartbeat IPC: 1.14237 cumulative IPC: 1.06144 (Simulation time: 0 hr 17 min 5 sec) 
Heartbeat CPU  0 instructions:  420000000 cycles:  355114220 heartbeat IPC: 1.14441 cumulative IPC: 1.06168 (Simulation time: 0 hr 17 min 7 sec) 
Heartbeat CPU  0 instructions:  421000000 cycles:  355990887 heartbeat IPC: 1.14068 cumulative IPC: 1.06191 (Simulation time: 0 hr 17 min 10 sec) 
Heartbeat CPU  0 instructions:  422000001 cycles:  356869918 heartbeat IPC: 1.13762 cumulative IPC: 1.06213 (Simulation time: 0 hr 17 min 12 sec) 
Heartbeat CPU  0 instructions:  423000002 cycles:  357742674 heartbeat IPC: 1.14580 cumulative IPC: 1.06237 (Simulation time: 0 hr 17 min 15 sec) 
Heartbeat CPU  0 instructions:  424000000 cycles:  358552631 heartbeat IPC: 1.23463 cumulative IPC: 1.06283 (Simulation time: 0 hr 17 min 17 sec) 
Heartbeat CPU  0 instructions:  425000003 cycles:  359442401 heartbeat IPC: 1.12389 cumulative IPC: 1.06300 (Simulation time: 0 hr 17 min 19 sec) 
Heartbeat CPU  0 instructions:  426000003 cycles:  360316333 heartbeat IPC: 1.14425 cumulative IPC: 1.06323 (Simulation time: 0 hr 17 min 22 sec) 
Heartbeat CPU  0 instructions:  427000000 cycles:  361193420 heartbeat IPC: 1.14013 cumulative IPC: 1.06345 (Simulation time: 0 hr 17 min 24 sec) 
Heartbeat CPU  0 instructions:  428000000 cycles:  362071089 heartbeat IPC: 1.13938 cumulative IPC: 1.06367 (Simulation time: 0 hr 17 min 27 sec) 
Heartbeat CPU  0 instructions:  429000001 cycles:  362944777 heartbeat IPC: 1.14457 cumulative IPC: 1.06390 (Simulation time: 0 hr 17 min 29 sec) 
Heartbeat CPU  0 instructions:  430000003 cycles:  363814135 heartbeat IPC: 1.15028 cumulative IPC: 1.06414 (Simulation time: 0 hr 17 min 32 sec) 
Heartbeat CPU  0 instructions:  431000000 cycles:  364695236 heartbeat IPC: 1.13494 cumulative IPC: 1.06434 (Simulation time: 0 hr 17 min 34 sec) 
Heartbeat CPU  0 instructions:  432000000 cycles:  365574397 heartbeat IPC: 1.13745 cumulative IPC: 1.06455 (Simulation time: 0 hr 17 min 37 sec) 
Heartbeat CPU  0 instructions:  433000001 cycles:  366454673 heartbeat IPC: 1.13601 cumulative IPC: 1.06475 (Simulation time: 0 hr 17 min 39 sec) 
Heartbeat CPU  0 instructions:  434000001 cycles:  367278830 heartbeat IPC: 1.21336 cumulative IPC: 1.06514 (Simulation time: 0 hr 17 min 42 sec) 
Heartbeat CPU  0 instructions:  435000003 cycles:  368087625 heartbeat IPC: 1.23641 cumulative IPC: 1.06558 (Simulation time: 0 hr 17 min 44 sec) 
Heartbeat CPU  0 instructions:  436000000 cycles:  369022669 heartbeat IPC: 1.06947 cumulative IPC: 1.06559 (Simulation time: 0 hr 17 min 47 sec) 
Heartbeat CPU  0 instructions:  437000001 cycles:  369898296 heartbeat IPC: 1.14204 cumulative IPC: 1.06580 (Simulation time: 0 hr 17 min 49 sec) 
Heartbeat CPU  0 instructions:  438000000 cycles:  370772696 heartbeat IPC: 1.14364 cumulative IPC: 1.06602 (Simulation time: 0 hr 17 min 52 sec) 
Heartbeat CPU  0 instructions:  439000003 cycles:  371645258 heartbeat IPC: 1.14605 cumulative IPC: 1.06624 (Simulation time: 0 hr 17 min 54 sec) 
Heartbeat CPU  0 instructions:  440000000 cycles:  372523900 heartbeat IPC: 1.13812 cumulative IPC: 1.06644 (Simulation time: 0 hr 17 min 57 sec) 
Heartbeat CPU  0 instructions:  441000001 cycles:  373403461 heartbeat IPC: 1.13693 cumulative IPC: 1.06663 (Simulation time: 0 hr 17 min 59 sec) 
Heartbeat CPU  0 instructions:  442000000 cycles:  374282563 heartbeat IPC: 1.13752 cumulative IPC: 1.06682 (Simulation time: 0 hr 18 min 2 sec) 
Heartbeat CPU  0 instructions:  443000003 cycles:  375160234 heartbeat IPC: 1.13938 cumulative IPC: 1.06702 (Simulation time: 0 hr 18 min 4 sec) 
Heartbeat CPU  0 instructions:  444000000 cycles:  376020346 heartbeat IPC: 1.16264 cumulative IPC: 1.06728 (Simulation time: 0 hr 18 min 7 sec) 
Heartbeat CPU  0 instructions:  445000000 cycles:  376828296 heartbeat IPC: 1.23770 cumulative IPC: 1.06770 (Simulation time: 0 hr 18 min 9 sec) 
Heartbeat CPU  0 instructions:  446000000 cycles:  377741878 heartbeat IPC: 1.09459 cumulative IPC: 1.06778 (Simulation time: 0 hr 18 min 12 sec) 
Heartbeat CPU  0 instructions:  447000001 cycles:  378622329 heartbeat IPC: 1.13578 cumulative IPC: 1.06796 (Simulation time: 0 hr 18 min 14 sec) 
Heartbeat CPU  0 instructions:  448000000 cycles:  379494167 heartbeat IPC: 1.14700 cumulative IPC: 1.06818 (Simulation time: 0 hr 18 min 17 sec) 
Heartbeat CPU  0 instructions:  449000001 cycles:  380372970 heartbeat IPC: 1.13791 cumulative IPC: 1.06836 (Simulation time: 0 hr 18 min 19 sec) 
Heartbeat CPU  0 instructions:  450000000 cycles:  381249398 heartbeat IPC: 1.14099 cumulative IPC: 1.06856 (Simulation time: 0 hr 18 min 22 sec) 
Heartbeat CPU  0 instructions:  451000000 cycles:  382128415 heartbeat IPC: 1.13763 cumulative IPC: 1.06874 (Simulation time: 0 hr 18 min 24 sec) 
Heartbeat CPU  0 instructions:  452000000 cycles:  383009202 heartbeat IPC: 1.13535 cumulative IPC: 1.06892 (Simulation time: 0 hr 18 min 27 sec) 
Heartbeat CPU  0 instructions:  453000002 cycles:  383887601 heartbeat IPC: 1.13844 cumulative IPC: 1.06911 (Simulation time: 0 hr 18 min 29 sec) 
Heartbeat CPU  0 instructions:  454000000 cycles:  384765953 heartbeat IPC: 1.13849 cumulative IPC: 1.06929 (Simulation time: 0 hr 18 min 32 sec) 
Heartbeat CPU  0 instructions:  455000002 cycles:  385579035 heartbeat IPC: 1.22989 cumulative IPC: 1.06968 (Simulation time: 0 hr 18 min 34 sec) 
Heartbeat CPU  0 instructions:  456000000 cycles:  386413290 heartbeat IPC: 1.19867 cumulative IPC: 1.07001 (Simulation time: 0 hr 18 min 36 sec) 
Heartbeat CPU  0 instructions:  457000002 cycles:  387332115 heartbeat IPC: 1.08835 cumulative IPC: 1.07006 (Simulation time: 0 hr 18 min 39 sec) 
Heartbeat CPU  0 instructions:  458000000 cycles:  388207730 heartbeat IPC: 1.14205 cumulative IPC: 1.07025 (Simulation time: 0 hr 18 min 41 sec) 
Heartbeat CPU  0 instructions:  459000000 cycles:  389086652 heartbeat IPC: 1.13776 cumulative IPC: 1.07042 (Simulation time: 0 hr 18 min 44 sec) 
Heartbeat CPU  0 instructions:  460000000 cycles:  389965681 heartbeat IPC: 1.13762 cumulative IPC: 1.07060 (Simulation time: 0 hr 18 min 46 sec) 
Heartbeat CPU  0 instructions:  461000000 cycles:  390846550 heartbeat IPC: 1.13524 cumulative IPC: 1.07077 (Simulation time: 0 hr 18 min 49 sec) 
Heartbeat CPU  0 instructions:  462000000 cycles:  391729135 heartbeat IPC: 1.13304 cumulative IPC: 1.07093 (Simulation time: 0 hr 18 min 51 sec) 
Heartbeat CPU  0 instructions:  463000002 cycles:  392606107 heartbeat IPC: 1.14029 cumulative IPC: 1.07111 (Simulation time: 0 hr 18 min 54 sec) 
Heartbeat CPU  0 instructions:  464000000 cycles:  393483444 heartbeat IPC: 1.13981 cumulative IPC: 1.07129 (Simulation time: 0 hr 18 min 56 sec) 
Heartbeat CPU  0 instructions:  465000003 cycles:  394336915 heartbeat IPC: 1.17169 cumulative IPC: 1.07154 (Simulation time: 0 hr 18 min 59 sec) 
Heartbeat CPU  0 instructions:  466000001 cycles:  395145695 heartbeat IPC: 1.23643 cumulative IPC: 1.07193 (Simulation time: 0 hr 19 min 1 sec) 
Heartbeat CPU  0 instructions:  467000000 cycles:  396065643 heartbeat IPC: 1.08702 cumulative IPC: 1.07197 (Simulation time: 0 hr 19 min 4 sec) 
Heartbeat CPU  0 instructions:  468000000 cycles:  396939341 heartbeat IPC: 1.14456 cumulative IPC: 1.07215 (Simulation time: 0 hr 19 min 6 sec) 
Heartbeat CPU  0 instructions:  469000002 cycles:  397819080 heartbeat IPC: 1.13670 cumulative IPC: 1.07232 (Simulation time: 0 hr 19 min 8 sec) 
Heartbeat CPU  0 instructions:  470000003 cycles:  398698137 heartbeat IPC: 1.13758 cumulative IPC: 1.07248 (Simulation time: 0 hr 19 min 11 sec) 
Heartbeat CPU  0 instructions:  471000001 cycles:  399588551 heartbeat IPC: 1.12307 cumulative IPC: 1.07262 (Simulation time: 0 hr 19 min 14 sec) 
Heartbeat CPU  0 instructions:  472000000 cycles:  400465100 heartbeat IPC: 1.14084 cumulative IPC: 1.07279 (Simulation time: 0 hr 19 min 16 sec) 
Heartbeat CPU  0 instructions:  473000000 cycles:  401345062 heartbeat IPC: 1.13641 cumulative IPC: 1.07295 (Simulation time: 0 hr 19 min 19 sec) 
Heartbeat CPU  0 instructions:  474000002 cycles:  402224314 heartbeat IPC: 1.13733 cumulative IPC: 1.07311 (Simulation time: 0 hr 19 min 21 sec) 
Heartbeat CPU  0 instructions:  475000000 cycles:  403119192 heartbeat IPC: 1.11747 cumulative IPC: 1.07322 (Simulation time: 0 hr 19 min 24 sec) 
Heartbeat CPU  0 instructions:  476000000 cycles:  403929556 heartbeat IPC: 1.23401 cumulative IPC: 1.07360 (Simulation time: 0 hr 19 min 26 sec) 
Heartbeat CPU  0 instructions:  477000003 cycles:  404810285 heartbeat IPC: 1.13543 cumulative IPC: 1.07375 (Simulation time: 0 hr 19 min 28 sec) 
Heartbeat CPU  0 instructions:  478000001 cycles:  405713587 heartbeat IPC: 1.10705 cumulative IPC: 1.07384 (Simulation time: 0 hr 19 min 31 sec) 
Heartbeat CPU  0 instructions:  479000000 cycles:  406588337 heartbeat IPC: 1.14318 cumulative IPC: 1.07401 (Simulation time: 0 hr 19 min 33 sec) 
Heartbeat CPU  0 instructions:  480000000 cycles:  407473479 heartbeat IPC: 1.12976 cumulative IPC: 1.07415 (Simulation time: 0 hr 19 min 36 sec) 
Heartbeat CPU  0 instructions:  481000001 cycles:  408354158 heartbeat IPC: 1.13549 cumulative IPC: 1.07430 (Simulation time: 0 hr 19 min 38 sec) 
Heartbeat CPU  0 instructions:  482000003 cycles:  409231547 heartbeat IPC: 1.13975 cumulative IPC: 1.07446 (Simulation time: 0 hr 19 min 41 sec) 
Heartbeat CPU  0 instructions:  483000000 cycles:  410106235 heartbeat IPC: 1.14326 cumulative IPC: 1.07463 (Simulation time: 0 hr 19 min 43 sec) 
Heartbeat CPU  0 instructions:  484000000 cycles:  410986065 heartbeat IPC: 1.13658 cumulative IPC: 1.07478 (Simulation time: 0 hr 19 min 46 sec) 
Heartbeat CPU  0 instructions:  485000001 cycles:  411867175 heartbeat IPC: 1.13493 cumulative IPC: 1.07493 (Simulation time: 0 hr 19 min 48 sec) 
Heartbeat CPU  0 instructions:  486000000 cycles:  412711469 heartbeat IPC: 1.18442 cumulative IPC: 1.07519 (Simulation time: 0 hr 19 min 51 sec) 
Heartbeat CPU  0 instructions:  487000002 cycles:  413518976 heartbeat IPC: 1.23838 cumulative IPC: 1.07556 (Simulation time: 0 hr 19 min 53 sec) 
Heartbeat CPU  0 instructions:  488000000 cycles:  414448916 heartbeat IPC: 1.07534 cumulative IPC: 1.07555 (Simulation time: 0 hr 19 min 56 sec) 
Heartbeat CPU  0 instructions:  489000000 cycles:  415327692 heartbeat IPC: 1.13795 cumulative IPC: 1.07571 (Simulation time: 0 hr 19 min 58 sec) 
Heartbeat CPU  0 instructions:  490000000 cycles:  416208331 heartbeat IPC: 1.13554 cumulative IPC: 1.07585 (Simulation time: 0 hr 20 min 1 sec) 
Heartbeat CPU  0 instructions:  491000001 cycles:  417087643 heartbeat IPC: 1.13725 cumulative IPC: 1.07600 (Simulation time: 0 hr 20 min 3 sec) 
Heartbeat CPU  0 instructions:  492000000 cycles:  417963598 heartbeat IPC: 1.14161 cumulative IPC: 1.07616 (Simulation time: 0 hr 20 min 6 sec) 
Heartbeat CPU  0 instructions:  493000000 cycles:  418841850 heartbeat IPC: 1.13863 cumulative IPC: 1.07631 (Simulation time: 0 hr 20 min 8 sec) 
Heartbeat CPU  0 instructions:  494000003 cycles:  419720851 heartbeat IPC: 1.13766 cumulative IPC: 1.07646 (Simulation time: 0 hr 20 min 11 sec) 
Heartbeat CPU  0 instructions:  495000001 cycles:  420600049 heartbeat IPC: 1.13740 cumulative IPC: 1.07660 (Simulation time: 0 hr 20 min 13 sec) 
Heartbeat CPU  0 instructions:  496000000 cycles:  421479748 heartbeat IPC: 1.13675 cumulative IPC: 1.07675 (Simulation time: 0 hr 20 min 16 sec) 
Heartbeat CPU  0 instructions:  497000003 cycles:  422279458 heartbeat IPC: 1.25046 cumulative IPC: 1.07712 (Simulation time: 0 hr 20 min 18 sec) 
Heartbeat CPU  0 instructions:  498000001 cycles:  423165478 heartbeat IPC: 1.12864 cumulative IPC: 1.07725 (Simulation time: 0 hr 20 min 20 sec) 
Heartbeat CPU  0 instructions:  499000001 cycles:  424049061 heartbeat IPC: 1.13176 cumulative IPC: 1.07738 (Simulation time: 0 hr 20 min 23 sec) 
Heartbeat CPU  0 instructions:  500000000 cycles:  424924420 heartbeat IPC: 1.14239 cumulative IPC: 1.07753 (Simulation time: 0 hr 20 min 25 sec) 
Heartbeat CPU  0 instructions:  501000003 cycles:  425802336 heartbeat IPC: 1.13906 cumulative IPC: 1.07767 (Simulation time: 0 hr 20 min 28 sec) 
Heartbeat CPU  0 instructions:  502000003 cycles:  426679493 heartbeat IPC: 1.14005 cumulative IPC: 1.07782 (Simulation time: 0 hr 20 min 30 sec) 
Heartbeat CPU  0 instructions:  503000002 cycles:  427557773 heartbeat IPC: 1.13859 cumulative IPC: 1.07796 (Simulation time: 0 hr 20 min 33 sec) 
Heartbeat CPU  0 instructions:  504000000 cycles:  428432066 heartbeat IPC: 1.14378 cumulative IPC: 1.07812 (Simulation time: 0 hr 20 min 35 sec) 
Heartbeat CPU  0 instructions:  505000000 cycles:  429311618 heartbeat IPC: 1.13694 cumulative IPC: 1.07826 (Simulation time: 0 hr 20 min 38 sec) 
Heartbeat CPU  0 instructions:  506000002 cycles:  430191758 heartbeat IPC: 1.13619 cumulative IPC: 1.07839 (Simulation time: 0 hr 20 min 40 sec) 
Heartbeat CPU  0 instructions:  507000001 cycles:  431026225 heartbeat IPC: 1.19837 cumulative IPC: 1.07866 (Simulation time: 0 hr 20 min 43 sec) 
Heartbeat CPU  0 instructions:  508000000 cycles:  431836268 heartbeat IPC: 1.23450 cumulative IPC: 1.07899 (Simulation time: 0 hr 20 min 45 sec) 
Heartbeat CPU  0 instructions:  509000002 cycles:  432768831 heartbeat IPC: 1.07232 cumulative IPC: 1.07897 (Simulation time: 0 hr 20 min 48 sec) 
Heartbeat CPU  0 instructions:  510000002 cycles:  433645932 heartbeat IPC: 1.14012 cumulative IPC: 1.07911 (Simulation time: 0 hr 20 min 50 sec) 
Heartbeat CPU  0 instructions:  511000001 cycles:  434526372 heartbeat IPC: 1.13579 cumulative IPC: 1.07925 (Simulation time: 0 hr 20 min 53 sec) 
Heartbeat CPU  0 instructions:  512000000 cycles:  435403328 heartbeat IPC: 1.14031 cumulative IPC: 1.07939 (Simulation time: 0 hr 20 min 55 sec) 
Heartbeat CPU  0 instructions:  513000002 cycles:  436279994 heartbeat IPC: 1.14069 cumulative IPC: 1.07953 (Simulation time: 0 hr 20 min 58 sec) 
Heartbeat CPU  0 instructions:  514000000 cycles:  437159999 heartbeat IPC: 1.13635 cumulative IPC: 1.07966 (Simulation time: 0 hr 21 min 0 sec) 
Heartbeat CPU  0 instructions:  515000000 cycles:  438039080 heartbeat IPC: 1.13755 cumulative IPC: 1.07979 (Simulation time: 0 hr 21 min 2 sec) 
Heartbeat CPU  0 instructions:  516000000 cycles:  438917905 heartbeat IPC: 1.13788 cumulative IPC: 1.07992 (Simulation time: 0 hr 21 min 5 sec) 
Heartbeat CPU  0 instructions:  517000002 cycles:  439787220 heartbeat IPC: 1.15033 cumulative IPC: 1.08008 (Simulation time: 0 hr 21 min 7 sec) 
Heartbeat CPU  0 instructions:  518000000 cycles:  440587887 heartbeat IPC: 1.24896 cumulative IPC: 1.08043 (Simulation time: 0 hr 21 min 10 sec) 
Heartbeat CPU  0 instructions:  519000003 cycles:  441489479 heartbeat IPC: 1.10915 cumulative IPC: 1.08050 (Simulation time: 0 hr 21 min 12 sec) 
Heartbeat CPU  0 instructions:  520000000 cycles:  442378394 heartbeat IPC: 1.12496 cumulative IPC: 1.08060 (Simulation time: 0 hr 21 min 15 sec) 
Heartbeat CPU  0 instructions:  521000000 cycles:  443256809 heartbeat IPC: 1.13841 cumulative IPC: 1.08073 (Simulation time: 0 hr 21 min 17 sec) 
Heartbeat CPU  0 instructions:  522000003 cycles:  444136527 heartbeat IPC: 1.13673 cumulative IPC: 1.08086 (Simulation time: 0 hr 21 min 19 sec) 
Heartbeat CPU  0 instructions:  523000001 cycles:  445014159 heartbeat IPC: 1.13943 cumulative IPC: 1.08099 (Simulation time: 0 hr 21 min 22 sec) 
Heartbeat CPU  0 instructions:  524000000 cycles:  445890084 heartbeat IPC: 1.14165 cumulative IPC: 1.08112 (Simulation time: 0 hr 21 min 24 sec) 
Heartbeat CPU  0 instructions:  525000002 cycles:  446767439 heartbeat IPC: 1.13979 cumulative IPC: 1.08125 (Simulation time: 0 hr 21 min 27 sec) 
Heartbeat CPU  0 instructions:  526000002 cycles:  447648239 heartbeat IPC: 1.13533 cumulative IPC: 1.08137 (Simulation time: 0 hr 21 min 29 sec) 
Heartbeat CPU  0 instructions:  527000000 cycles:  448526514 heartbeat IPC: 1.13859 cumulative IPC: 1.08150 (Simulation time: 0 hr 21 min 32 sec) 
Heartbeat CPU  0 instructions:  528000000 cycles:  449354190 heartbeat IPC: 1.20820 cumulative IPC: 1.08177 (Simulation time: 0 hr 21 min 34 sec) 
Heartbeat CPU  0 instructions:  529000003 cycles:  450163142 heartbeat IPC: 1.23617 cumulative IPC: 1.08208 (Simulation time: 0 hr 21 min 36 sec) 
Heartbeat CPU  0 instructions:  530000002 cycles:  451110945 heartbeat IPC: 1.05507 cumulative IPC: 1.08202 (Simulation time: 0 hr 21 min 39 sec) 
Heartbeat CPU  0 instructions:  531000002 cycles:  451990356 heartbeat IPC: 1.13712 cumulative IPC: 1.08214 (Simulation time: 0 hr 21 min 41 sec) 
Heartbeat CPU  0 instructions:  532000000 cycles:  452866871 heartbeat IPC: 1.14088 cumulative IPC: 1.08227 (Simulation time: 0 hr 21 min 44 sec) 
Heartbeat CPU  0 instructions:  533000001 cycles:  453745054 heartbeat IPC: 1.13872 cumulative IPC: 1.08239 (Simulation time: 0 hr 21 min 46 sec) 
Heartbeat CPU  0 instructions:  534000003 cycles:  454622705 heartbeat IPC: 1.13941 cumulative IPC: 1.08252 (Simulation time: 0 hr 21 min 49 sec) 
Heartbeat CPU  0 instructions:  535000000 cycles:  455501239 heartbeat IPC: 1.13826 cumulative IPC: 1.08264 (Simulation time: 0 hr 21 min 51 sec) 
Heartbeat CPU  0 instructions:  536000000 cycles:  456390008 heartbeat IPC: 1.12515 cumulative IPC: 1.08273 (Simulation time: 0 hr 21 min 54 sec) 
Heartbeat CPU  0 instructions:  537000002 cycles:  457273994 heartbeat IPC: 1.13124 cumulative IPC: 1.08284 (Simulation time: 0 hr 21 min 56 sec) 
Heartbeat CPU  0 instructions:  538000003 cycles:  458138765 heartbeat IPC: 1.15638 cumulative IPC: 1.08300 (Simulation time: 0 hr 21 min 59 sec) 
Heartbeat CPU  0 instructions:  539000001 cycles:  458940652 heartbeat IPC: 1.24706 cumulative IPC: 1.08332 (Simulation time: 0 hr 22 min 1 sec) 
Heartbeat CPU  0 instructions:  540000000 cycles:  460480452 heartbeat IPC: 0.64943 cumulative IPC: 1.08168 (Simulation time: 0 hr 22 min 4 sec) 
Heartbeat CPU  0 instructions:  541000002 cycles:  461640477 heartbeat IPC: 0.86205 cumulative IPC: 1.08105 (Simulation time: 0 hr 22 min 6 sec) 
Heartbeat CPU  0 instructions:  542000003 cycles:  462644886 heartbeat IPC: 0.99561 cumulative IPC: 1.08084 (Simulation time: 0 hr 22 min 9 sec) 
Heartbeat CPU  0 instructions:  543000002 cycles:  463629053 heartbeat IPC: 1.01609 cumulative IPC: 1.08069 (Simulation time: 0 hr 22 min 11 sec) 
Heartbeat CPU  0 instructions:  544000000 cycles:  464627603 heartbeat IPC: 1.00145 cumulative IPC: 1.08050 (Simulation time: 0 hr 22 min 14 sec) 
Heartbeat CPU  0 instructions:  545000000 cycles:  465619528 heartbeat IPC: 1.00814 cumulative IPC: 1.08032 (Simulation time: 0 hr 22 min 17 sec) 
Heartbeat CPU  0 instructions:  546000001 cycles:  466614175 heartbeat IPC: 1.00538 cumulative IPC: 1.08014 (Simulation time: 0 hr 22 min 19 sec) 
Heartbeat CPU  0 instructions:  547000002 cycles:  467597733 heartbeat IPC: 1.01672 cumulative IPC: 1.07999 (Simulation time: 0 hr 22 min 22 sec) 
Heartbeat CPU  0 instructions:  548000000 cycles:  468592823 heartbeat IPC: 1.00493 cumulative IPC: 1.07981 (Simulation time: 0 hr 22 min 24 sec) 
Heartbeat CPU  0 instructions:  549000003 cycles:  469583045 heartbeat IPC: 1.00988 cumulative IPC: 1.07964 (Simulation time: 0 hr 22 min 27 sec) 
Heartbeat CPU  0 instructions:  550000002 cycles:  470569957 heartbeat IPC: 1.01326 cumulative IPC: 1.07949 (Simulation time: 0 hr 22 min 29 sec) 
Heartbeat CPU  0 instructions:  551000002 cycles:  471620670 heartbeat IPC: 0.95173 cumulative IPC: 1.07916 (Simulation time: 0 hr 22 min 32 sec) 
Heartbeat CPU  0 instructions:  552000000 cycles:  472613954 heartbeat IPC: 1.00676 cumulative IPC: 1.07899 (Simulation time: 0 hr 22 min 35 sec) 
Heartbeat CPU  0 instructions:  553000000 cycles:  473601032 heartbeat IPC: 1.01309 cumulative IPC: 1.07884 (Simulation time: 0 hr 22 min 37 sec) 
Heartbeat CPU  0 instructions:  554000001 cycles:  474589391 heartbeat IPC: 1.01178 cumulative IPC: 1.07868 (Simulation time: 0 hr 22 min 40 sec) 
Heartbeat CPU  0 instructions:  555000001 cycles:  475574540 heartbeat IPC: 1.01507 cumulative IPC: 1.07853 (Simulation time: 0 hr 22 min 42 sec) 
Heartbeat CPU  0 instructions:  556000000 cycles:  476556238 heartbeat IPC: 1.01864 cumulative IPC: 1.07839 (Simulation time: 0 hr 22 min 45 sec) 
Heartbeat CPU  0 instructions:  557000001 cycles:  477541885 heartbeat IPC: 1.01456 cumulative IPC: 1.07824 (Simulation time: 0 hr 22 min 47 sec) 
Heartbeat CPU  0 instructions:  558000001 cycles:  478534495 heartbeat IPC: 1.00744 cumulative IPC: 1.07808 (Simulation time: 0 hr 22 min 50 sec) 
Heartbeat CPU  0 instructions:  559000000 cycles:  479523028 heartbeat IPC: 1.01160 cumulative IPC: 1.07792 (Simulation time: 0 hr 22 min 53 sec) 
Heartbeat CPU  0 instructions:  560000000 cycles:  480515937 heartbeat IPC: 1.00714 cumulative IPC: 1.07776 (Simulation time: 0 hr 22 min 55 sec) 
Heartbeat CPU  0 instructions:  561000000 cycles:  481526635 heartbeat IPC: 0.98942 cumulative IPC: 1.07755 (Simulation time: 0 hr 22 min 58 sec) 
Heartbeat CPU  0 instructions:  562000002 cycles:  482536616 heartbeat IPC: 0.99012 cumulative IPC: 1.07735 (Simulation time: 0 hr 23 min 0 sec) 
Heartbeat CPU  0 instructions:  563000003 cycles:  483557352 heartbeat IPC: 0.97969 cumulative IPC: 1.07711 (Simulation time: 0 hr 23 min 3 sec) 
Heartbeat CPU  0 instructions:  564000000 cycles:  484627640 heartbeat IPC: 0.93433 cumulative IPC: 1.07676 (Simulation time: 0 hr 23 min 6 sec) 
Heartbeat CPU  0 instructions:  565000000 cycles:  485616882 heartbeat IPC: 1.01087 cumulative IPC: 1.07661 (Simulation time: 0 hr 23 min 8 sec) 
Heartbeat CPU  0 instructions:  566000001 cycles:  486602031 heartbeat IPC: 1.01508 cumulative IPC: 1.07647 (Simulation time: 0 hr 23 min 11 sec) 
Heartbeat CPU  0 instructions:  567000003 cycles:  487601260 heartbeat IPC: 1.00077 cumulative IPC: 1.07629 (Simulation time: 0 hr 23 min 13 sec) 
Heartbeat CPU  0 instructions:  568000000 cycles:  488586792 heartbeat IPC: 1.01468 cumulative IPC: 1.07615 (Simulation time: 0 hr 23 min 16 sec) 
Heartbeat CPU  0 instructions:  569000000 cycles:  489568595 heartbeat IPC: 1.01853 cumulative IPC: 1.07602 (Simulation time: 0 hr 23 min 19 sec) 
Heartbeat CPU  0 instructions:  570000003 cycles:  490550136 heartbeat IPC: 1.01881 cumulative IPC: 1.07590 (Simulation time: 0 hr 23 min 21 sec) 
Heartbeat CPU  0 instructions:  571000000 cycles:  491539080 heartbeat IPC: 1.01118 cumulative IPC: 1.07575 (Simulation time: 0 hr 23 min 24 sec) 
Heartbeat CPU  0 instructions:  572000000 cycles:  492568326 heartbeat IPC: 0.97159 cumulative IPC: 1.07551 (Simulation time: 0 hr 23 min 26 sec) 
Heartbeat CPU  0 instructions:  573000002 cycles:  493555741 heartbeat IPC: 1.01275 cumulative IPC: 1.07536 (Simulation time: 0 hr 23 min 29 sec) 
Heartbeat CPU  0 instructions:  574000000 cycles:  494546479 heartbeat IPC: 1.00935 cumulative IPC: 1.07522 (Simulation time: 0 hr 23 min 32 sec) 
Heartbeat CPU  0 instructions:  575000003 cycles:  495539352 heartbeat IPC: 1.00718 cumulative IPC: 1.07506 (Simulation time: 0 hr 23 min 34 sec) 
Heartbeat CPU  0 instructions:  576000000 cycles:  496534102 heartbeat IPC: 1.00527 cumulative IPC: 1.07491 (Simulation time: 0 hr 23 min 37 sec) 
Heartbeat CPU  0 instructions:  577000002 cycles:  497529342 heartbeat IPC: 1.00478 cumulative IPC: 1.07475 (Simulation time: 0 hr 23 min 39 sec) 
Heartbeat CPU  0 instructions:  578000002 cycles:  498526904 heartbeat IPC: 1.00244 cumulative IPC: 1.07459 (Simulation time: 0 hr 23 min 42 sec) 
Heartbeat CPU  0 instructions:  579000001 cycles:  499519592 heartbeat IPC: 1.00736 cumulative IPC: 1.07444 (Simulation time: 0 hr 23 min 45 sec) 
Heartbeat CPU  0 instructions:  580000000 cycles:  500503424 heartbeat IPC: 1.01643 cumulative IPC: 1.07431 (Simulation time: 0 hr 23 min 47 sec) 
Heartbeat CPU  0 instructions:  581000000 cycles:  501484480 heartbeat IPC: 1.01931 cumulative IPC: 1.07419 (Simulation time: 0 hr 23 min 50 sec) 
Heartbeat CPU  0 instructions:  582000002 cycles:  502504282 heartbeat IPC: 0.98058 cumulative IPC: 1.07398 (Simulation time: 0 hr 23 min 53 sec) 
Heartbeat CPU  0 instructions:  583000000 cycles:  503495189 heartbeat IPC: 1.00917 cumulative IPC: 1.07383 (Simulation time: 0 hr 23 min 55 sec) 
Heartbeat CPU  0 instructions:  584000000 cycles:  504477007 heartbeat IPC: 1.01852 cumulative IPC: 1.07371 (Simulation time: 0 hr 23 min 58 sec) 
Heartbeat CPU  0 instructions:  585000001 cycles:  505457935 heartbeat IPC: 1.01944 cumulative IPC: 1.07360 (Simulation time: 0 hr 24 min 0 sec) 
Heartbeat CPU  0 instructions:  586000002 cycles:  506442624 heartbeat IPC: 1.01555 cumulative IPC: 1.07347 (Simulation time: 0 hr 24 min 3 sec) 
Heartbeat CPU  0 instructions:  587000002 cycles:  507439955 heartbeat IPC: 1.00268 cumulative IPC: 1.07331 (Simulation time: 0 hr 24 min 5 sec) 
Heartbeat CPU  0 instructions:  588000000 cycles:  508427841 heartbeat IPC: 1.01226 cumulative IPC: 1.07318 (Simulation time: 0 hr 24 min 8 sec) 
Heartbeat CPU  0 instructions:  589000002 cycles:  509410930 heartbeat IPC: 1.01720 cumulative IPC: 1.07306 (Simulation time: 0 hr 24 min 10 sec) 
Heartbeat CPU  0 instructions:  590000002 cycles:  510391923 heartbeat IPC: 1.01938 cumulative IPC: 1.07294 (Simulation time: 0 hr 24 min 13 sec) 
Heartbeat CPU  0 instructions:  591000001 cycles:  511378248 heartbeat IPC: 1.01386 cumulative IPC: 1.07282 (Simulation time: 0 hr 24 min 16 sec) 
Heartbeat CPU  0 instructions:  592000000 cycles:  512575231 heartbeat IPC: 0.83543 cumulative IPC: 1.07220 (Simulation time: 0 hr 24 min 18 sec) 
Heartbeat CPU  0 instructions:  593000003 cycles:  514007441 heartbeat IPC: 0.69822 cumulative IPC: 1.07103 (Simulation time: 0 hr 24 min 21 sec) 
Heartbeat CPU  0 instructions:  594000003 cycles:  514918051 heartbeat IPC: 1.09816 cumulative IPC: 1.07109 (Simulation time: 0 hr 24 min 23 sec) 
Heartbeat CPU  0 instructions:  595000000 cycles:  515820698 heartbeat IPC: 1.10785 cumulative IPC: 1.07116 (Simulation time: 0 hr 24 min 26 sec) 
Heartbeat CPU  0 instructions:  596000000 cycles:  516714456 heartbeat IPC: 1.11887 cumulative IPC: 1.07125 (Simulation time: 0 hr 24 min 28 sec) 
Heartbeat CPU  0 instructions:  597000003 cycles:  517620530 heartbeat IPC: 1.10367 cumulative IPC: 1.07132 (Simulation time: 0 hr 24 min 31 sec) 
Heartbeat CPU  0 instructions:  598000003 cycles:  518518612 heartbeat IPC: 1.11348 cumulative IPC: 1.07140 (Simulation time: 0 hr 24 min 33 sec) 
Heartbeat CPU  0 instructions:  599000003 cycles:  519425975 heartbeat IPC: 1.10209 cumulative IPC: 1.07146 (Simulation time: 0 hr 24 min 36 sec) 
Heartbeat CPU  0 instructions:  600000000 cycles:  521113342 heartbeat IPC: 0.59264 cumulative IPC: 1.06973 (Simulation time: 0 hr 24 min 39 sec) 
Finished CPU 0 instructions: 500000003 cycles: 467408474 cumulative IPC: 1.06973 (Simulation time: 0 hr 24 min 39 sec) 

ChampSim completed all CPUs

[ROI Statistics]
Core_0_instructions 500000003
Core_0_cycles 467408474
Core_0_IPC 1.06973

Core_0_branch_prediction_accuracy 99.13980
Core_0_branch_MPKI 0.20639
Core_0_average_ROB_occupancy_at_mispredict 243.19768

Core_0_L1D_total_access 147493955
Core_0_L1D_total_hit 142171957
Core_0_L1D_total_miss 5321998
Core_0_L1D_loads 134752471
Core_0_L1D_load_hit 130732746
Core_0_L1D_load_miss 4019725
Core_0_L1D_RFOs 12741484
Core_0_L1D_RFO_hit 11439211
Core_0_L1D_RFO_miss 1302273
Core_0_L1D_prefetches 0
Core_0_L1D_prefetch_hit 0
Core_0_L1D_prefetch_miss 0
Core_0_L1D_writebacks 0
Core_0_L1D_writeback_hit 0
Core_0_L1D_writeback_miss 0
Core_0_L1D_prefetch_requested 0
Core_0_L1D_prefetch_dropped 0
Core_0_L1D_prefetch_issued 0
Core_0_L1D_prefetch_filled 0
Core_0_L1D_prefetch_useful 0
Core_0_L1D_prefetch_useless 0
Core_0_L1D_prefetch_late 0
Core_0_L1D_average_miss_latency 50.74998

Core_0_L1D_rq_access 197259587
Core_0_L1D_rq_forward 0
Core_0_L1D_rq_merged 61587765
Core_0_L1D_rq_to_cache 135671822
Core_0_L1D_rq_full 0

Core_0_L1D_wq_access 16646357
Core_0_L1D_wq_forward 0
Core_0_L1D_wq_merged 0
Core_0_L1D_wq_to_cache 16646357
Core_0_L1D_wq_full 188576

Core_0_L1D_pq_access 0
Core_0_L1D_pq_forward 0
Core_0_L1D_pq_merged 0
Core_0_L1D_pq_to_cache 0
Core_0_L1D_pq_full 0

Core_0_L1D_acc_epochs 504757
Core_0_L1D_acc_level_0 504757
Core_0_L1D_acc_level_1 0
Core_0_L1D_acc_level_2 0
Core_0_L1D_acc_level_3 0
Core_0_L1D_acc_level_4 0
Core_0_L1D_acc_level_5 0
Core_0_L1D_acc_level_6 0
Core_0_L1D_acc_level_7 0
Core_0_L1D_acc_level_8 0
Core_0_L1D_acc_level_9 0

Core_0_L1I_total_access 121112268
Core_0_L1I_total_hit 121111970
Core_0_L1I_total_miss 298
Core_0_L1I_loads 121112268
Core_0_L1I_load_hit 121111970
Core_0_L1I_load_miss 298
Core_0_L1I_RFOs 0
Core_0_L1I_RFO_hit 0
Core_0_L1I_RFO_miss 0
Core_0_L1I_prefetches 0
Core_0_L1I_prefetch_hit 0
Core_0_L1I_prefetch_miss 0
Core_0_L1I_writebacks 0
Core_0_L1I_writeback_hit 0
Core_0_L1I_writeback_miss 0
Core_0_L1I_prefetch_requested 0
Core_0_L1I_prefetch_dropped 0
Core_0_L1I_prefetch_issued 0
Core_0_L1I_prefetch_filled 0
Core_0_L1I_prefetch_useful 0
Core_0_L1I_prefetch_useless 0
Core_0_L1I_prefetch_late 0
Core_0_L1I_average_miss_latency 248.61745

Core_0_L1I_rq_access 500000208
Core_0_L1I_rq_forward 0
Core_0_L1I_rq_merged 378886923
Core_0_L1I_rq_to_cache 121113285
Core_0_L1I_rq_full 0

Core_0_L1I_wq_access 0
Core_0_L1I_wq_forward 0
Core_0_L1I_wq_merged 0
Core_0_L1I_wq_to_cache 0
Core_0_L1I_wq_full 0

Core_0_L1I_pq_access 0
Core_0_L1I_pq_forward 0
Core_0_L1I_pq_merged 0
Core_0_L1I_pq_to_cache 0
Core_0_L1I_pq_full 0

Core_0_L1I_acc_epochs 504757
Core_0_L1I_acc_level_0 504757
Core_0_L1I_acc_level_1 0
Core_0_L1I_acc_level_2 0
Core_0_L1I_acc_level_3 0
Core_0_L1I_acc_level_4 0
Core_0_L1I_acc_level_5 0
Core_0_L1I_acc_level_6 0
Core_0_L1I_acc_level_7 0
Core_0_L1I_acc_level_8 0
Core_0_L1I_acc_level_9 0

Core_0_L2C_total_access 9814502
Core_0_L2C_total_hit 6015308
Core_0_L2C_total_miss 3799194
Core_0_L2C_loads 4019974
Core_0_L2C_load_hit 3812113
Core_0_L2C_load_miss 207861
Core_0_L2C_RFOs 1302122
Core_0_L2C_RFO_hit 501630
Core_0_L2C_RFO_miss 800492
Core_0_L2C_prefetches 2821454
Core_0_L2C_prefetch_hit 31047
Core_0_L2C_prefetch_miss 2790407
Core_0_L2C_writebacks 1670952
Core_0_L2C_writeback_hit 1670518
Core_0_L2C_writeback_miss 434
Core_0_L2C_prefetch_requested 3291501
Core_0_L2C_prefetch_dropped 0
Core_0_L2C_prefetch_issued 3291501
Core_0_L2C_prefetch_filled 3232889
Core_0_L2C_prefetch_useful 3207083
Core_0_L2C_prefetch_useless 25780
Core_0_L2C_prefetch_late 601
Core_0_L2C_average_miss_latency 234.26485

Core_0_L2C_rq_access 5322298
Core_0_L2C_rq_forward 0
Core_0_L2C_rq_merged 0
Core_0_L2C_rq_to_cache 5322098
Core_0_L2C_rq_full 0

Core_0_L2C_wq_access 1670952
Core_0_L2C_wq_forward 205
Core_0_L2C_wq_merged 0
Core_0_L2C_wq_to_cache 1670952
Core_0_L2C_wq_full 0

Core_0_L2C_pq_access 3291501
Core_0_L2C_pq_forward 0
Core_0_L2C_pq_merged 0
Core_0_L2C_pq_to_cache 3291496
Core_0_L2C_pq_full 0

Core_0_L2C_acc_epochs 504757
Core_0_L2C_acc_level_0 360990
Core_0_L2C_acc_level_1 48300
Core_0_L2C_acc_level_2 23428
Core_0_L2C_acc_level_3 13349
Core_0_L2C_acc_level_4 5122
Core_0_L2C_acc_level_5 9956
Core_0_L2C_acc_level_6 3558
Core_0_L2C_acc_level_7 4238
Core_0_L2C_acc_level_8 1799
Core_0_L2C_acc_level_9 34017

Core_0_LLC_total_access 4793130
Core_0_LLC_total_hit 886688
Core_0_LLC_total_miss 3906442
Core_0_LLC_loads 207259
Core_0_LLC_load_hit 39442
Core_0_LLC_load_miss 167817
Core_0_LLC_RFOs 800492
Core_0_LLC_RFO_hit 90344
Core_0_LLC_RFO_miss 710148
Core_0_LLC_prefetches 2817467
Core_0_LLC_prefetch_hit 438911
Core_0_LLC_prefetch_miss 2378556
Core_0_LLC_writebacks 967912
Core_0_LLC_writeback_hit 317991
Core_0_LLC_writeback_miss 649921
Core_0_LLC_prefetch_requested 0
Core_0_LLC_prefetch_dropped 0
Core_0_LLC_prefetch_issued 0
Core_0_LLC_prefetch_filled 2820963
Core_0_LLC_prefetch_useful 19966
Core_0_LLC_prefetch_useless 2792127
Core_0_LLC_prefetch_late 0
Core_0_LLC_average_miss_latency 198.09568

Core_0_LLC_rq_access 1007754
Core_0_LLC_rq_forward 0
Core_0_LLC_rq_merged 0
Core_0_LLC_rq_to_cache 1007752
Core_0_LLC_rq_full 0

Core_0_LLC_wq_access 967912
Core_0_LLC_wq_forward 2
Core_0_LLC_wq_merged 0
Core_0_LLC_wq_to_cache 967912
Core_0_LLC_wq_full 0

Core_0_LLC_pq_access 3259961
Core_0_LLC_pq_forward 0
Core_0_LLC_pq_merged 0
Core_0_LLC_pq_to_cache 3259961
Core_0_LLC_pq_full 0

Core_0_LLC_acc_epochs 508900
Core_0_LLC_acc_level_0 507937
Core_0_LLC_acc_level_1 308
Core_0_LLC_acc_level_2 148
Core_0_LLC_acc_level_3 97
Core_0_LLC_acc_level_4 2
Core_0_LLC_acc_level_5 127
Core_0_LLC_acc_level_6 4
Core_0_LLC_acc_level_7 82
Core_0_LLC_acc_level_8 1
Core_0_LLC_acc_level_9 194

Core_0_major_page_fault 0
Core_0_minor_page_fault 14596

[Bingo] PHT Access: 112566
[Bingo] PHT Hit PC+Addr: 1601
[Bingo] PHT Hit PC+Offs: 107138
[Bingo] PHT Miss: 3827
[Bingo] Prefetch PC+Addr: 0
[Bingo] Prefetch PC+Offs: 0
[Bingo] Useful PC+Addr: 0
[Bingo] Useful PC+Offs: 0
[Bingo] Useless PC+Addr: 0
[Bingo] Useless PC+Offs: 0
[Bingo] L1 Prefetch per Region: 0.00000
[Bingo] L2 Prefetch per Region: 31.26325
[Bingo] L3 Prefetch per Region: 0.30687
[Bingo] No Prefetch per Region: 0.42987
[Bingo] Number of Voters Mean: 15.36714
[Bingo] Number of Voters SD: 2.36967

Channel_0_RQ_row_buffer_hit 2010076
Channel_0_RQ_row_buffer_miss 1246445
Channel_0_WQ_row_buffer_hit 361509
Channel_0_WQ_row_buffer_miss 495274
Channel_0_WQ_full 8389
Channel_0_dbus_congested 817784

avg_congested_cycle 1

DRAM_bw_pochs 2035600
DRAM_bw_level_0 1953974
DRAM_bw_level_1 80896
DRAM_bw_level_2 727
DRAM_bw_level_3 3
