*************************************************
   ChampSim Multicore Out-of-Order Simulator
   Last compiled: Dec 11 2024 17:59:53
*************************************************
parsing config file: /home/functionmain/桌面/Pythia/config/mlop.ini

trace_0 /home/functionmain/桌面/Pythia/traces/437.leslie3d-265B.champsimtrace.xz
adding L2C_PREFETCHER: MLOP
Initialize SHIP state
warmup_instructions 100000000
simulation_instructions 500000000
champsim_seed 223
measure_ipc 0
measure_ipc_epoch 1000
measure_dram_bw 1
measure_dram_bw_epoch 256
measure_cache_acc 1
measure_cache_acc_epoch 1024
l1d_perfect 0
l2c_perfect 0
llc_perfect 0
l1d_semi_perfect 0
l2c_semi_perfect 0
llc_semi_perfect 0
semi_perfect_cache_page_buffer_size 64

num_cpus 1
cpu_freq 4000
dram_io_freq 4800
page_size 4096
block_size 64
max_read_per_cycle 8
max_fill_per_cycle 1
dram_channels 1
log2_dram_channels 0
dram_ranks 1
dram_banks 8
dram_rows 65536
dram_columns 128
dram_row_size 8
dram_size 4096
dram_pages 1048576

fetch_width 6
decode_width 6
exec_width 4
lq_width 2
sq_width 2
retire_width 4
scheduler_size 128
branch_mispredict_penalty 20
rob_size 256
lq_size 72
sq_size 56
num_instr_destinations_sparc 4
num_instr_destinations 2
num_instr_sources 4

itlb_set 16
itlb_way 8
itlb_rq_size 16
itlb_wq_size 16
itlb_pq_size 0
itlb_mshr_size 8
itlb_latency 1

dtlb_set 16
dtlb_way 4
dtlb_rq_size 16
dtlb_wq_size 16
dtlb_pq_size 0
dtlb_mshr_size 8
dtlb_latency 1

stlb_set 128
stlb_way 12
stlb_rq_size 32
stlb_wq_size 32
stlb_pq_size 0
stlb_mshr_size 16
stlb_latency 8

l1i_size 32
l1i_set 64
l1i_way 8
l1i_rq_size 64
l1i_wq_size 64
l1i_pq_size 8
l1i_mshr_size 8
l1i_latency 1

l1d_size 32
l1d_set 64
l1d_way 8
l1d_rq_size 64
l1d_wq_size 64
l1d_pq_size 8
l1d_mshr_size 16
l1d_latency 4

l2c_size 256
l2c_set 512
l2c_way 8
l2c_rq_size 32
l2c_wq_size 32
l2c_pq_size 32
l2c_mshr_size 32
l2c_latency 10

llc_size 2048
llc_set 2048
llc_way 16
llc_rq_size 32
llc_wq_size 32
llc_pq_size 32
llc_mshr_size 64
llc_latency 20

dram_channel_width 8
dram_wq_size 64
dram_rq_size 64
tRP 15
tRCD 15
tCAS 12.5
dram_dbus_turn_around_time 30
dram_write_high_wm 56
dram_write_low_wm 48
min_dram_writes_per_switch 16
dram_mtps 4800
dram_dbus_return_time 6

mlop_pref_degree 16
mlop_num_updates 500
mlop_l1d_thresh 2
mlop_l2c_thresh 0.75
mlop_llc_thresh 0.3
mlop_debug_level 0
mlop_blocks_in_cache 4096
mlop_blocks_in_zone 64
mlop_amt_size 2048
mlop_PF_DEGREE 16
mlop_NUM_UPDATES 500
mlop_L1D_THRESH 1000
mlop_L2C_THRESH 375
mlop_LLC_THRESH 150
mlop_ORIGIN 63
mlop_MAX_OFFSET 63
mlop_MIN_OFFSET -63
mlop_ORIGIN 63
mlop_NUM_OFFSETS 127


Heartbeat CPU  0 instructions:    1000003 cycles:     500903 heartbeat IPC: 1.99640 cumulative IPC: 1.99640 (Simulation time: 0 hr 0 min 2 sec) 
Heartbeat CPU  0 instructions:    2000001 cycles:    1000220 heartbeat IPC: 2.00273 cumulative IPC: 1.99956 (Simulation time: 0 hr 0 min 4 sec) 
Heartbeat CPU  0 instructions:    3000001 cycles:    1500018 heartbeat IPC: 2.00081 cumulative IPC: 1.99998 (Simulation time: 0 hr 0 min 5 sec) 
Heartbeat CPU  0 instructions:    4000000 cycles:    1999865 heartbeat IPC: 2.00061 cumulative IPC: 2.00013 (Simulation time: 0 hr 0 min 7 sec) 
Heartbeat CPU  0 instructions:    5000003 cycles:    2498818 heartbeat IPC: 2.00420 cumulative IPC: 2.00095 (Simulation time: 0 hr 0 min 9 sec) 
Heartbeat CPU  0 instructions:    6000001 cycles:    2998992 heartbeat IPC: 1.99930 cumulative IPC: 2.00067 (Simulation time: 0 hr 0 min 11 sec) 
Heartbeat CPU  0 instructions:    7000002 cycles:    3496934 heartbeat IPC: 2.00827 cumulative IPC: 2.00175 (Simulation time: 0 hr 0 min 12 sec) 
Heartbeat CPU  0 instructions:    8000000 cycles:    3997182 heartbeat IPC: 1.99900 cumulative IPC: 2.00141 (Simulation time: 0 hr 0 min 14 sec) 
Heartbeat CPU  0 instructions:    9000003 cycles:    4494972 heartbeat IPC: 2.00889 cumulative IPC: 2.00224 (Simulation time: 0 hr 0 min 16 sec) 
Heartbeat CPU  0 instructions:   10000001 cycles:    4995003 heartbeat IPC: 1.99987 cumulative IPC: 2.00200 (Simulation time: 0 hr 0 min 18 sec) 
Heartbeat CPU  0 instructions:   11000002 cycles:    5492310 heartbeat IPC: 2.01083 cumulative IPC: 2.00280 (Simulation time: 0 hr 0 min 19 sec) 
Heartbeat CPU  0 instructions:   12000000 cycles:    5993326 heartbeat IPC: 1.99594 cumulative IPC: 2.00223 (Simulation time: 0 hr 0 min 21 sec) 
Heartbeat CPU  0 instructions:   13000002 cycles:    6490702 heartbeat IPC: 2.01056 cumulative IPC: 2.00287 (Simulation time: 0 hr 0 min 23 sec) 
Heartbeat CPU  0 instructions:   14000002 cycles:    6991392 heartbeat IPC: 1.99724 cumulative IPC: 2.00246 (Simulation time: 0 hr 0 min 25 sec) 
Heartbeat CPU  0 instructions:   15000000 cycles:    7488990 heartbeat IPC: 2.00965 cumulative IPC: 2.00294 (Simulation time: 0 hr 0 min 26 sec) 
Heartbeat CPU  0 instructions:   16000000 cycles:    7988763 heartbeat IPC: 2.00091 cumulative IPC: 2.00281 (Simulation time: 0 hr 0 min 28 sec) 
Heartbeat CPU  0 instructions:   17000003 cycles:    8487425 heartbeat IPC: 2.00537 cumulative IPC: 2.00296 (Simulation time: 0 hr 0 min 30 sec) 
Heartbeat CPU  0 instructions:   18000003 cycles:    8987105 heartbeat IPC: 2.00128 cumulative IPC: 2.00287 (Simulation time: 0 hr 0 min 32 sec) 
Heartbeat CPU  0 instructions:   19000003 cycles:    9486713 heartbeat IPC: 2.00157 cumulative IPC: 2.00280 (Simulation time: 0 hr 0 min 33 sec) 
Heartbeat CPU  0 instructions:   20000000 cycles:    9985713 heartbeat IPC: 2.00400 cumulative IPC: 2.00286 (Simulation time: 0 hr 0 min 35 sec) 
Heartbeat CPU  0 instructions:   21000000 cycles:   10486177 heartbeat IPC: 1.99815 cumulative IPC: 2.00264 (Simulation time: 0 hr 0 min 37 sec) 
Heartbeat CPU  0 instructions:   22000003 cycles:   10984449 heartbeat IPC: 2.00694 cumulative IPC: 2.00283 (Simulation time: 0 hr 0 min 39 sec) 
Heartbeat CPU  0 instructions:   23000003 cycles:   11485297 heartbeat IPC: 1.99661 cumulative IPC: 2.00256 (Simulation time: 0 hr 0 min 40 sec) 
Heartbeat CPU  0 instructions:   24000000 cycles:   11983639 heartbeat IPC: 2.00665 cumulative IPC: 2.00273 (Simulation time: 0 hr 0 min 42 sec) 
Heartbeat CPU  0 instructions:   25000002 cycles:   12484763 heartbeat IPC: 1.99552 cumulative IPC: 2.00244 (Simulation time: 0 hr 0 min 44 sec) 
Heartbeat CPU  0 instructions:   26000000 cycles:   12983031 heartbeat IPC: 2.00695 cumulative IPC: 2.00261 (Simulation time: 0 hr 0 min 46 sec) 
Heartbeat CPU  0 instructions:   27000000 cycles:   13484766 heartbeat IPC: 1.99308 cumulative IPC: 2.00226 (Simulation time: 0 hr 0 min 47 sec) 
Heartbeat CPU  0 instructions:   28000000 cycles:   13982143 heartbeat IPC: 2.01055 cumulative IPC: 2.00255 (Simulation time: 0 hr 0 min 49 sec) 
Heartbeat CPU  0 instructions:   29000000 cycles:   14482967 heartbeat IPC: 1.99671 cumulative IPC: 2.00235 (Simulation time: 0 hr 0 min 51 sec) 
Heartbeat CPU  0 instructions:   30000000 cycles:   14980787 heartbeat IPC: 2.00876 cumulative IPC: 2.00256 (Simulation time: 0 hr 0 min 53 sec) 
Heartbeat CPU  0 instructions:   31000002 cycles:   15480595 heartbeat IPC: 2.00077 cumulative IPC: 2.00251 (Simulation time: 0 hr 0 min 54 sec) 
Heartbeat CPU  0 instructions:   32000000 cycles:   15979020 heartbeat IPC: 2.00632 cumulative IPC: 2.00263 (Simulation time: 0 hr 0 min 56 sec) 
Heartbeat CPU  0 instructions:   33000000 cycles:   16478088 heartbeat IPC: 2.00374 cumulative IPC: 2.00266 (Simulation time: 0 hr 0 min 58 sec) 
Heartbeat CPU  0 instructions:   34000002 cycles:   16977255 heartbeat IPC: 2.00334 cumulative IPC: 2.00268 (Simulation time: 0 hr 1 min 0 sec) 
Heartbeat CPU  0 instructions:   35000002 cycles:   17475709 heartbeat IPC: 2.00620 cumulative IPC: 2.00278 (Simulation time: 0 hr 1 min 1 sec) 
Heartbeat CPU  0 instructions:   36000000 cycles:   17975539 heartbeat IPC: 2.00068 cumulative IPC: 2.00272 (Simulation time: 0 hr 1 min 3 sec) 
Heartbeat CPU  0 instructions:   37000000 cycles:   18473209 heartbeat IPC: 2.00936 cumulative IPC: 2.00290 (Simulation time: 0 hr 1 min 5 sec) 
Heartbeat CPU  0 instructions:   38000000 cycles:   18973821 heartbeat IPC: 1.99756 cumulative IPC: 2.00276 (Simulation time: 0 hr 1 min 7 sec) 
Heartbeat CPU  0 instructions:   39000000 cycles:   19472112 heartbeat IPC: 2.00686 cumulative IPC: 2.00286 (Simulation time: 0 hr 1 min 8 sec) 
Heartbeat CPU  0 instructions:   40000000 cycles:   19973058 heartbeat IPC: 1.99622 cumulative IPC: 2.00270 (Simulation time: 0 hr 1 min 10 sec) 
Heartbeat CPU  0 instructions:   41000000 cycles:   20471116 heartbeat IPC: 2.00780 cumulative IPC: 2.00282 (Simulation time: 0 hr 1 min 12 sec) 
Heartbeat CPU  0 instructions:   42000000 cycles:   20972875 heartbeat IPC: 1.99299 cumulative IPC: 2.00259 (Simulation time: 0 hr 1 min 14 sec) 
Heartbeat CPU  0 instructions:   43000003 cycles:   21470572 heartbeat IPC: 2.00926 cumulative IPC: 2.00274 (Simulation time: 0 hr 1 min 15 sec) 
Heartbeat CPU  0 instructions:   44000000 cycles:   21971809 heartbeat IPC: 1.99506 cumulative IPC: 2.00257 (Simulation time: 0 hr 1 min 17 sec) 
Heartbeat CPU  0 instructions:   45000003 cycles:   22470074 heartbeat IPC: 2.00697 cumulative IPC: 2.00266 (Simulation time: 0 hr 1 min 19 sec) 
Heartbeat CPU  0 instructions:   46000003 cycles:   22970214 heartbeat IPC: 1.99944 cumulative IPC: 2.00259 (Simulation time: 0 hr 1 min 21 sec) 
Heartbeat CPU  0 instructions:   47000001 cycles:   23469282 heartbeat IPC: 2.00373 cumulative IPC: 2.00262 (Simulation time: 0 hr 1 min 22 sec) 
Heartbeat CPU  0 instructions:   48000000 cycles:   23969023 heartbeat IPC: 2.00103 cumulative IPC: 2.00258 (Simulation time: 0 hr 1 min 24 sec) 
Heartbeat CPU  0 instructions:   49000000 cycles:   24468360 heartbeat IPC: 2.00266 cumulative IPC: 2.00259 (Simulation time: 0 hr 1 min 26 sec) 
Heartbeat CPU  0 instructions:   50000000 cycles:   24966863 heartbeat IPC: 2.00601 cumulative IPC: 2.00265 (Simulation time: 0 hr 1 min 28 sec) 
Heartbeat CPU  0 instructions:   51000003 cycles:   25466680 heartbeat IPC: 2.00074 cumulative IPC: 2.00262 (Simulation time: 0 hr 1 min 29 sec) 
Heartbeat CPU  0 instructions:   52000000 cycles:   25964341 heartbeat IPC: 2.00939 cumulative IPC: 2.00275 (Simulation time: 0 hr 1 min 31 sec) 
Heartbeat CPU  0 instructions:   53000001 cycles:   26464775 heartbeat IPC: 1.99827 cumulative IPC: 2.00266 (Simulation time: 0 hr 1 min 33 sec) 
Heartbeat CPU  0 instructions:   54000002 cycles:   26962767 heartbeat IPC: 2.00807 cumulative IPC: 2.00276 (Simulation time: 0 hr 1 min 35 sec) 
Heartbeat CPU  0 instructions:   55000001 cycles:   27463483 heartbeat IPC: 1.99714 cumulative IPC: 2.00266 (Simulation time: 0 hr 1 min 36 sec) 
Heartbeat CPU  0 instructions:   56000000 cycles:   27961063 heartbeat IPC: 2.00973 cumulative IPC: 2.00279 (Simulation time: 0 hr 1 min 38 sec) 
Heartbeat CPU  0 instructions:   57000002 cycles:   28462133 heartbeat IPC: 1.99573 cumulative IPC: 2.00266 (Simulation time: 0 hr 1 min 40 sec) 
Heartbeat CPU  0 instructions:   58000001 cycles:   28959047 heartbeat IPC: 2.01242 cumulative IPC: 2.00283 (Simulation time: 0 hr 1 min 42 sec) 
Heartbeat CPU  0 instructions:   59000003 cycles:   29459977 heartbeat IPC: 1.99629 cumulative IPC: 2.00272 (Simulation time: 0 hr 1 min 43 sec) 
Heartbeat CPU  0 instructions:   60000000 cycles:   29958299 heartbeat IPC: 2.00673 cumulative IPC: 2.00278 (Simulation time: 0 hr 1 min 45 sec) 
Heartbeat CPU  0 instructions:   61000003 cycles:   30458673 heartbeat IPC: 1.99851 cumulative IPC: 2.00271 (Simulation time: 0 hr 1 min 47 sec) 
Heartbeat CPU  0 instructions:   62000001 cycles:   30957741 heartbeat IPC: 2.00373 cumulative IPC: 2.00273 (Simulation time: 0 hr 1 min 49 sec) 
Heartbeat CPU  0 instructions:   63000003 cycles:   31457456 heartbeat IPC: 2.00114 cumulative IPC: 2.00270 (Simulation time: 0 hr 1 min 50 sec) 
Heartbeat CPU  0 instructions:   64000000 cycles:   31957243 heartbeat IPC: 2.00085 cumulative IPC: 2.00268 (Simulation time: 0 hr 1 min 52 sec) 
Heartbeat CPU  0 instructions:   65000001 cycles:   32456203 heartbeat IPC: 2.00417 cumulative IPC: 2.00270 (Simulation time: 0 hr 1 min 54 sec) 
Heartbeat CPU  0 instructions:   66000000 cycles:   32956675 heartbeat IPC: 1.99811 cumulative IPC: 2.00263 (Simulation time: 0 hr 1 min 56 sec) 
Heartbeat CPU  0 instructions:   67000003 cycles:   33455086 heartbeat IPC: 2.00638 cumulative IPC: 2.00269 (Simulation time: 0 hr 1 min 58 sec) 
Heartbeat CPU  0 instructions:   68000000 cycles:   33956311 heartbeat IPC: 1.99511 cumulative IPC: 2.00257 (Simulation time: 0 hr 1 min 59 sec) 
Heartbeat CPU  0 instructions:   69000002 cycles:   34455105 heartbeat IPC: 2.00484 cumulative IPC: 2.00261 (Simulation time: 0 hr 2 min 1 sec) 
Heartbeat CPU  0 instructions:   70000003 cycles:   34955700 heartbeat IPC: 1.99762 cumulative IPC: 2.00253 (Simulation time: 0 hr 2 min 3 sec) 
Heartbeat CPU  0 instructions:   71000001 cycles:   35453449 heartbeat IPC: 2.00904 cumulative IPC: 2.00263 (Simulation time: 0 hr 2 min 5 sec) 
Heartbeat CPU  0 instructions:   72000000 cycles:   35954522 heartbeat IPC: 1.99572 cumulative IPC: 2.00253 (Simulation time: 0 hr 2 min 6 sec) 
Heartbeat CPU  0 instructions:   73000001 cycles:   36451685 heartbeat IPC: 2.01141 cumulative IPC: 2.00265 (Simulation time: 0 hr 2 min 8 sec) 
Heartbeat CPU  0 instructions:   74000002 cycles:   36952025 heartbeat IPC: 1.99864 cumulative IPC: 2.00260 (Simulation time: 0 hr 2 min 10 sec) 
Heartbeat CPU  0 instructions:   75000000 cycles:   37449739 heartbeat IPC: 2.00918 cumulative IPC: 2.00268 (Simulation time: 0 hr 2 min 12 sec) 
Heartbeat CPU  0 instructions:   76000000 cycles:   37949295 heartbeat IPC: 2.00178 cumulative IPC: 2.00267 (Simulation time: 0 hr 2 min 13 sec) 
Heartbeat CPU  0 instructions:   77000003 cycles:   38447843 heartbeat IPC: 2.00583 cumulative IPC: 2.00271 (Simulation time: 0 hr 2 min 15 sec) 
Heartbeat CPU  0 instructions:   78000000 cycles:   38946728 heartbeat IPC: 2.00446 cumulative IPC: 2.00274 (Simulation time: 0 hr 2 min 17 sec) 
Heartbeat CPU  0 instructions:   79000002 cycles:   39445880 heartbeat IPC: 2.00340 cumulative IPC: 2.00274 (Simulation time: 0 hr 2 min 19 sec) 
Heartbeat CPU  0 instructions:   80000000 cycles:   39944707 heartbeat IPC: 2.00470 cumulative IPC: 2.00277 (Simulation time: 0 hr 2 min 20 sec) 
Heartbeat CPU  0 instructions:   81000002 cycles:   40445091 heartbeat IPC: 1.99847 cumulative IPC: 2.00272 (Simulation time: 0 hr 2 min 22 sec) 
Heartbeat CPU  0 instructions:   82000002 cycles:   40943273 heartbeat IPC: 2.00730 cumulative IPC: 2.00277 (Simulation time: 0 hr 2 min 24 sec) 
Heartbeat CPU  0 instructions:   83000000 cycles:   41444425 heartbeat IPC: 1.99540 cumulative IPC: 2.00268 (Simulation time: 0 hr 2 min 26 sec) 
Heartbeat CPU  0 instructions:   84000000 cycles:   41943122 heartbeat IPC: 2.00523 cumulative IPC: 2.00271 (Simulation time: 0 hr 2 min 27 sec) 
Heartbeat CPU  0 instructions:   85000000 cycles:   42444458 heartbeat IPC: 1.99467 cumulative IPC: 2.00262 (Simulation time: 0 hr 2 min 29 sec) 
Heartbeat CPU  0 instructions:   86000003 cycles:   42942449 heartbeat IPC: 2.00807 cumulative IPC: 2.00268 (Simulation time: 0 hr 2 min 31 sec) 
Heartbeat CPU  0 instructions:   87000000 cycles:   43443968 heartbeat IPC: 1.99394 cumulative IPC: 2.00258 (Simulation time: 0 hr 2 min 33 sec) 
Heartbeat CPU  0 instructions:   88000000 cycles:   43941333 heartbeat IPC: 2.01060 cumulative IPC: 2.00267 (Simulation time: 0 hr 2 min 34 sec) 
Heartbeat CPU  0 instructions:   89000003 cycles:   44442288 heartbeat IPC: 1.99619 cumulative IPC: 2.00260 (Simulation time: 0 hr 2 min 36 sec) 
Heartbeat CPU  0 instructions:   90000000 cycles:   44940453 heartbeat IPC: 2.00736 cumulative IPC: 2.00265 (Simulation time: 0 hr 2 min 38 sec) 
Heartbeat CPU  0 instructions:   91000000 cycles:   45440114 heartbeat IPC: 2.00136 cumulative IPC: 2.00264 (Simulation time: 0 hr 2 min 40 sec) 
Heartbeat CPU  0 instructions:   92000000 cycles:   45938668 heartbeat IPC: 2.00580 cumulative IPC: 2.00267 (Simulation time: 0 hr 2 min 42 sec) 
Heartbeat CPU  0 instructions:   93000000 cycles:   46437875 heartbeat IPC: 2.00318 cumulative IPC: 2.00268 (Simulation time: 0 hr 2 min 43 sec) 
Heartbeat CPU  0 instructions:   94000000 cycles:   46937087 heartbeat IPC: 2.00316 cumulative IPC: 2.00268 (Simulation time: 0 hr 2 min 45 sec) 
Heartbeat CPU  0 instructions:   95000000 cycles:   47435394 heartbeat IPC: 2.00679 cumulative IPC: 2.00272 (Simulation time: 0 hr 2 min 47 sec) 
Heartbeat CPU  0 instructions:   96000000 cycles:   47935387 heartbeat IPC: 2.00003 cumulative IPC: 2.00270 (Simulation time: 0 hr 2 min 49 sec) 
Heartbeat CPU  0 instructions:   97000000 cycles:   48433354 heartbeat IPC: 2.00817 cumulative IPC: 2.00275 (Simulation time: 0 hr 2 min 50 sec) 
Heartbeat CPU  0 instructions:   98000001 cycles:   48934058 heartbeat IPC: 1.99719 cumulative IPC: 2.00270 (Simulation time: 0 hr 2 min 52 sec) 
Heartbeat CPU  0 instructions:   99000001 cycles:   49431945 heartbeat IPC: 2.00849 cumulative IPC: 2.00275 (Simulation time: 0 hr 2 min 54 sec) 
Heartbeat CPU  0 instructions:  100000000 cycles:   49932409 heartbeat IPC: 1.99814 cumulative IPC: 2.00271 (Simulation time: 0 hr 2 min 56 sec) 

Warmup complete CPU  0 instructions:  100000001 cycles:   49932410 (Simulation time: 0 hr 2 min 56 sec) 

Heartbeat CPU  0 instructions:  101000003 cycles:   50807319 heartbeat IPC: 1.14298 cumulative IPC: 1.14298 (Simulation time: 0 hr 2 min 58 sec) 
Heartbeat CPU  0 instructions:  102000001 cycles:   51700172 heartbeat IPC: 1.12000 cumulative IPC: 1.13137 (Simulation time: 0 hr 3 min 0 sec) 
Heartbeat CPU  0 instructions:  103000002 cycles:   52589653 heartbeat IPC: 1.12425 cumulative IPC: 1.12899 (Simulation time: 0 hr 3 min 2 sec) 
Heartbeat CPU  0 instructions:  104000000 cycles:   53476473 heartbeat IPC: 1.12762 cumulative IPC: 1.12865 (Simulation time: 0 hr 3 min 4 sec) 
Heartbeat CPU  0 instructions:  105000002 cycles:   54347747 heartbeat IPC: 1.14775 cumulative IPC: 1.13242 (Simulation time: 0 hr 3 min 6 sec) 
Heartbeat CPU  0 instructions:  106000003 cycles:   55253641 heartbeat IPC: 1.10388 cumulative IPC: 1.12756 (Simulation time: 0 hr 3 min 8 sec) 
Heartbeat CPU  0 instructions:  107000000 cycles:   56139859 heartbeat IPC: 1.12839 cumulative IPC: 1.12768 (Simulation time: 0 hr 3 min 10 sec) 
Heartbeat CPU  0 instructions:  108000000 cycles:   57025438 heartbeat IPC: 1.12920 cumulative IPC: 1.12787 (Simulation time: 0 hr 3 min 12 sec) 
Heartbeat CPU  0 instructions:  109000000 cycles:   57894968 heartbeat IPC: 1.15005 cumulative IPC: 1.13029 (Simulation time: 0 hr 3 min 14 sec) 
Heartbeat CPU  0 instructions:  110000001 cycles:   58791963 heartbeat IPC: 1.11483 cumulative IPC: 1.12873 (Simulation time: 0 hr 3 min 17 sec) 
Heartbeat CPU  0 instructions:  111000001 cycles:   59675270 heartbeat IPC: 1.13211 cumulative IPC: 1.12903 (Simulation time: 0 hr 3 min 19 sec) 
Heartbeat CPU  0 instructions:  112000000 cycles:   60546043 heartbeat IPC: 1.14840 cumulative IPC: 1.13062 (Simulation time: 0 hr 3 min 21 sec) 
Heartbeat CPU  0 instructions:  113000003 cycles:   61435972 heartbeat IPC: 1.12369 cumulative IPC: 1.13008 (Simulation time: 0 hr 3 min 23 sec) 
Heartbeat CPU  0 instructions:  114000001 cycles:   62318087 heartbeat IPC: 1.13364 cumulative IPC: 1.13034 (Simulation time: 0 hr 3 min 25 sec) 
Heartbeat CPU  0 instructions:  115000003 cycles:   63187249 heartbeat IPC: 1.15054 cumulative IPC: 1.13166 (Simulation time: 0 hr 3 min 27 sec) 
Heartbeat CPU  0 instructions:  116000000 cycles:   64078116 heartbeat IPC: 1.12250 cumulative IPC: 1.13109 (Simulation time: 0 hr 3 min 29 sec) 
Heartbeat CPU  0 instructions:  117000002 cycles:   64942578 heartbeat IPC: 1.15679 cumulative IPC: 1.13257 (Simulation time: 0 hr 3 min 31 sec) 
Heartbeat CPU  0 instructions:  118000003 cycles:   65823030 heartbeat IPC: 1.13578 cumulative IPC: 1.13274 (Simulation time: 0 hr 3 min 33 sec) 
Heartbeat CPU  0 instructions:  119000000 cycles:   66709836 heartbeat IPC: 1.12764 cumulative IPC: 1.13247 (Simulation time: 0 hr 3 min 35 sec) 
Heartbeat CPU  0 instructions:  120000000 cycles:   67590126 heartbeat IPC: 1.13599 cumulative IPC: 1.13265 (Simulation time: 0 hr 3 min 38 sec) 
Heartbeat CPU  0 instructions:  121000000 cycles:   68481727 heartbeat IPC: 1.12158 cumulative IPC: 1.13212 (Simulation time: 0 hr 3 min 40 sec) 
Heartbeat CPU  0 instructions:  122000000 cycles:   69356200 heartbeat IPC: 1.14355 cumulative IPC: 1.13263 (Simulation time: 0 hr 3 min 42 sec) 
Heartbeat CPU  0 instructions:  123000001 cycles:   70249321 heartbeat IPC: 1.11967 cumulative IPC: 1.13206 (Simulation time: 0 hr 3 min 44 sec) 
Heartbeat CPU  0 instructions:  124000000 cycles:   71120335 heartbeat IPC: 1.14809 cumulative IPC: 1.13272 (Simulation time: 0 hr 3 min 46 sec) 
Heartbeat CPU  0 instructions:  125000001 cycles:   72010024 heartbeat IPC: 1.12399 cumulative IPC: 1.13237 (Simulation time: 0 hr 3 min 48 sec) 
Heartbeat CPU  0 instructions:  126000002 cycles:   72882797 heartbeat IPC: 1.14577 cumulative IPC: 1.13288 (Simulation time: 0 hr 3 min 50 sec) 
Heartbeat CPU  0 instructions:  127000000 cycles:   73762387 heartbeat IPC: 1.13689 cumulative IPC: 1.13303 (Simulation time: 0 hr 3 min 52 sec) 
Heartbeat CPU  0 instructions:  128000000 cycles:   74633902 heartbeat IPC: 1.14743 cumulative IPC: 1.13353 (Simulation time: 0 hr 3 min 54 sec) 
Heartbeat CPU  0 instructions:  129000000 cycles:   75525982 heartbeat IPC: 1.12098 cumulative IPC: 1.13310 (Simulation time: 0 hr 3 min 57 sec) 
Heartbeat CPU  0 instructions:  130000000 cycles:   76422182 heartbeat IPC: 1.11582 cumulative IPC: 1.13251 (Simulation time: 0 hr 3 min 59 sec) 
Heartbeat CPU  0 instructions:  131000003 cycles:   77306664 heartbeat IPC: 1.13061 cumulative IPC: 1.13245 (Simulation time: 0 hr 4 min 1 sec) 
Heartbeat CPU  0 instructions:  132000000 cycles:   78121743 heartbeat IPC: 1.22687 cumulative IPC: 1.13518 (Simulation time: 0 hr 4 min 3 sec) 
Heartbeat CPU  0 instructions:  133000001 cycles:   78950949 heartbeat IPC: 1.20597 cumulative IPC: 1.13720 (Simulation time: 0 hr 4 min 5 sec) 
Heartbeat CPU  0 instructions:  134000003 cycles:   79895143 heartbeat IPC: 1.05911 cumulative IPC: 1.13474 (Simulation time: 0 hr 4 min 7 sec) 
Heartbeat CPU  0 instructions:  135000000 cycles:   80839941 heartbeat IPC: 1.05842 cumulative IPC: 1.13241 (Simulation time: 0 hr 4 min 9 sec) 
Heartbeat CPU  0 instructions:  136000000 cycles:   81787771 heartbeat IPC: 1.05504 cumulative IPC: 1.13011 (Simulation time: 0 hr 4 min 11 sec) 
Heartbeat CPU  0 instructions:  137000001 cycles:   82734635 heartbeat IPC: 1.05612 cumulative IPC: 1.12797 (Simulation time: 0 hr 4 min 13 sec) 
Heartbeat CPU  0 instructions:  138000003 cycles:   83682507 heartbeat IPC: 1.05500 cumulative IPC: 1.12592 (Simulation time: 0 hr 4 min 15 sec) 
Heartbeat CPU  0 instructions:  139000000 cycles:   84629593 heartbeat IPC: 1.05587 cumulative IPC: 1.12401 (Simulation time: 0 hr 4 min 18 sec) 
Heartbeat CPU  0 instructions:  140000000 cycles:   85577756 heartbeat IPC: 1.05467 cumulative IPC: 1.12217 (Simulation time: 0 hr 4 min 20 sec) 
Heartbeat CPU  0 instructions:  141000001 cycles:   86524753 heartbeat IPC: 1.05597 cumulative IPC: 1.12045 (Simulation time: 0 hr 4 min 22 sec) 
Heartbeat CPU  0 instructions:  142000003 cycles:   87471400 heartbeat IPC: 1.05636 cumulative IPC: 1.11884 (Simulation time: 0 hr 4 min 24 sec) 
Heartbeat CPU  0 instructions:  143000000 cycles:   88419538 heartbeat IPC: 1.05470 cumulative IPC: 1.11726 (Simulation time: 0 hr 4 min 26 sec) 
Heartbeat CPU  0 instructions:  144000000 cycles:   89363187 heartbeat IPC: 1.05972 cumulative IPC: 1.11588 (Simulation time: 0 hr 4 min 28 sec) 
Heartbeat CPU  0 instructions:  145000001 cycles:   90306854 heartbeat IPC: 1.05970 cumulative IPC: 1.11457 (Simulation time: 0 hr 4 min 30 sec) 
Heartbeat CPU  0 instructions:  146000002 cycles:   91250616 heartbeat IPC: 1.05959 cumulative IPC: 1.11331 (Simulation time: 0 hr 4 min 33 sec) 
Heartbeat CPU  0 instructions:  147000002 cycles:   92195693 heartbeat IPC: 1.05811 cumulative IPC: 1.11208 (Simulation time: 0 hr 4 min 35 sec) 
Heartbeat CPU  0 instructions:  148000000 cycles:   93143028 heartbeat IPC: 1.05559 cumulative IPC: 1.11084 (Simulation time: 0 hr 4 min 37 sec) 
Heartbeat CPU  0 instructions:  149000001 cycles:   94091414 heartbeat IPC: 1.05442 cumulative IPC: 1.10963 (Simulation time: 0 hr 4 min 39 sec) 
Heartbeat CPU  0 instructions:  150000002 cycles:   95038838 heartbeat IPC: 1.05549 cumulative IPC: 1.10849 (Simulation time: 0 hr 4 min 41 sec) 
Heartbeat CPU  0 instructions:  151000002 cycles:   95986564 heartbeat IPC: 1.05516 cumulative IPC: 1.10739 (Simulation time: 0 hr 4 min 43 sec) 
Heartbeat CPU  0 instructions:  152000000 cycles:   96933928 heartbeat IPC: 1.05556 cumulative IPC: 1.10635 (Simulation time: 0 hr 4 min 46 sec) 
Heartbeat CPU  0 instructions:  153000002 cycles:   97881201 heartbeat IPC: 1.05566 cumulative IPC: 1.10535 (Simulation time: 0 hr 4 min 48 sec) 
Heartbeat CPU  0 instructions:  154000002 cycles:   98829881 heartbeat IPC: 1.05410 cumulative IPC: 1.10435 (Simulation time: 0 hr 4 min 50 sec) 
Heartbeat CPU  0 instructions:  155000001 cycles:   99777250 heartbeat IPC: 1.05555 cumulative IPC: 1.10342 (Simulation time: 0 hr 4 min 52 sec) 
Heartbeat CPU  0 instructions:  156000000 cycles:  100724692 heartbeat IPC: 1.05547 cumulative IPC: 1.10253 (Simulation time: 0 hr 4 min 54 sec) 
Heartbeat CPU  0 instructions:  157000002 cycles:  101668406 heartbeat IPC: 1.05965 cumulative IPC: 1.10175 (Simulation time: 0 hr 4 min 56 sec) 
Heartbeat CPU  0 instructions:  158000000 cycles:  102615699 heartbeat IPC: 1.05564 cumulative IPC: 1.10092 (Simulation time: 0 hr 4 min 59 sec) 
Heartbeat CPU  0 instructions:  159000003 cycles:  103561084 heartbeat IPC: 1.05777 cumulative IPC: 1.10016 (Simulation time: 0 hr 5 min 1 sec) 
Heartbeat CPU  0 instructions:  160000000 cycles:  104508299 heartbeat IPC: 1.05572 cumulative IPC: 1.09939 (Simulation time: 0 hr 5 min 3 sec) 
Heartbeat CPU  0 instructions:  161000000 cycles:  105455632 heartbeat IPC: 1.05560 cumulative IPC: 1.09864 (Simulation time: 0 hr 5 min 5 sec) 
Heartbeat CPU  0 instructions:  162000001 cycles:  106402913 heartbeat IPC: 1.05565 cumulative IPC: 1.09792 (Simulation time: 0 hr 5 min 7 sec) 
Heartbeat CPU  0 instructions:  163000001 cycles:  107351105 heartbeat IPC: 1.05464 cumulative IPC: 1.09720 (Simulation time: 0 hr 5 min 9 sec) 
Heartbeat CPU  0 instructions:  164000000 cycles:  108298554 heartbeat IPC: 1.05546 cumulative IPC: 1.09653 (Simulation time: 0 hr 5 min 11 sec) 
Heartbeat CPU  0 instructions:  165000000 cycles:  109247683 heartbeat IPC: 1.05360 cumulative IPC: 1.09584 (Simulation time: 0 hr 5 min 14 sec) 
Heartbeat CPU  0 instructions:  166000001 cycles:  110194945 heartbeat IPC: 1.05568 cumulative IPC: 1.09521 (Simulation time: 0 hr 5 min 16 sec) 
Heartbeat CPU  0 instructions:  167000003 cycles:  111143516 heartbeat IPC: 1.05422 cumulative IPC: 1.09457 (Simulation time: 0 hr 5 min 18 sec) 
Heartbeat CPU  0 instructions:  168000000 cycles:  112090879 heartbeat IPC: 1.05556 cumulative IPC: 1.09398 (Simulation time: 0 hr 5 min 20 sec) 
Heartbeat CPU  0 instructions:  169000001 cycles:  113037347 heartbeat IPC: 1.05656 cumulative IPC: 1.09342 (Simulation time: 0 hr 5 min 22 sec) 
Heartbeat CPU  0 instructions:  170000001 cycles:  113982635 heartbeat IPC: 1.05788 cumulative IPC: 1.09289 (Simulation time: 0 hr 5 min 24 sec) 
Heartbeat CPU  0 instructions:  171000001 cycles:  114928491 heartbeat IPC: 1.05724 cumulative IPC: 1.09237 (Simulation time: 0 hr 5 min 27 sec) 
Heartbeat CPU  0 instructions:  172000000 cycles:  115874089 heartbeat IPC: 1.05753 cumulative IPC: 1.09187 (Simulation time: 0 hr 5 min 29 sec) 
Heartbeat CPU  0 instructions:  173000000 cycles:  116821234 heartbeat IPC: 1.05580 cumulative IPC: 1.09136 (Simulation time: 0 hr 5 min 31 sec) 
Heartbeat CPU  0 instructions:  174000001 cycles:  117769004 heartbeat IPC: 1.05511 cumulative IPC: 1.09086 (Simulation time: 0 hr 5 min 33 sec) 
Heartbeat CPU  0 instructions:  175000002 cycles:  118716425 heartbeat IPC: 1.05550 cumulative IPC: 1.09037 (Simulation time: 0 hr 5 min 35 sec) 
Heartbeat CPU  0 instructions:  176000000 cycles:  119664714 heartbeat IPC: 1.05453 cumulative IPC: 1.08988 (Simulation time: 0 hr 5 min 37 sec) 
Heartbeat CPU  0 instructions:  177000001 cycles:  120612160 heartbeat IPC: 1.05547 cumulative IPC: 1.08942 (Simulation time: 0 hr 5 min 39 sec) 
Heartbeat CPU  0 instructions:  178000001 cycles:  121560576 heartbeat IPC: 1.05439 cumulative IPC: 1.08896 (Simulation time: 0 hr 5 min 42 sec) 
Heartbeat CPU  0 instructions:  179000002 cycles:  122507716 heartbeat IPC: 1.05581 cumulative IPC: 1.08852 (Simulation time: 0 hr 5 min 44 sec) 
Heartbeat CPU  0 instructions:  180000000 cycles:  123455914 heartbeat IPC: 1.05463 cumulative IPC: 1.08809 (Simulation time: 0 hr 5 min 46 sec) 
Heartbeat CPU  0 instructions:  181000000 cycles:  124401964 heartbeat IPC: 1.05703 cumulative IPC: 1.08769 (Simulation time: 0 hr 5 min 48 sec) 
Heartbeat CPU  0 instructions:  182000002 cycles:  125345465 heartbeat IPC: 1.05988 cumulative IPC: 1.08734 (Simulation time: 0 hr 5 min 50 sec) 
Heartbeat CPU  0 instructions:  183000002 cycles:  126291283 heartbeat IPC: 1.05729 cumulative IPC: 1.08697 (Simulation time: 0 hr 5 min 52 sec) 
Heartbeat CPU  0 instructions:  184000000 cycles:  127235850 heartbeat IPC: 1.05868 cumulative IPC: 1.08663 (Simulation time: 0 hr 5 min 55 sec) 
Heartbeat CPU  0 instructions:  185000003 cycles:  128182936 heartbeat IPC: 1.05587 cumulative IPC: 1.08625 (Simulation time: 0 hr 5 min 57 sec) 
Heartbeat CPU  0 instructions:  186000000 cycles:  129129997 heartbeat IPC: 1.05589 cumulative IPC: 1.08589 (Simulation time: 0 hr 5 min 59 sec) 
Heartbeat CPU  0 instructions:  187000000 cycles:  130078518 heartbeat IPC: 1.05427 cumulative IPC: 1.08552 (Simulation time: 0 hr 6 min 1 sec) 
Heartbeat CPU  0 instructions:  188000000 cycles:  131025815 heartbeat IPC: 1.05564 cumulative IPC: 1.08517 (Simulation time: 0 hr 6 min 3 sec) 
Heartbeat CPU  0 instructions:  189000003 cycles:  131973985 heartbeat IPC: 1.05467 cumulative IPC: 1.08482 (Simulation time: 0 hr 6 min 5 sec) 
Heartbeat CPU  0 instructions:  190000000 cycles:  132921492 heartbeat IPC: 1.05540 cumulative IPC: 1.08448 (Simulation time: 0 hr 6 min 8 sec) 
Heartbeat CPU  0 instructions:  191000000 cycles:  133869809 heartbeat IPC: 1.05450 cumulative IPC: 1.08414 (Simulation time: 0 hr 6 min 10 sec) 
Heartbeat CPU  0 instructions:  192000000 cycles:  134817257 heartbeat IPC: 1.05547 cumulative IPC: 1.08382 (Simulation time: 0 hr 6 min 12 sec) 
Heartbeat CPU  0 instructions:  193000000 cycles:  135764307 heartbeat IPC: 1.05591 cumulative IPC: 1.08351 (Simulation time: 0 hr 6 min 14 sec) 
Heartbeat CPU  0 instructions:  194000000 cycles:  136709050 heartbeat IPC: 1.05849 cumulative IPC: 1.08324 (Simulation time: 0 hr 6 min 16 sec) 
Heartbeat CPU  0 instructions:  195000003 cycles:  137592604 heartbeat IPC: 1.13180 cumulative IPC: 1.08373 (Simulation time: 0 hr 6 min 18 sec) 
Heartbeat CPU  0 instructions:  196000000 cycles:  138428582 heartbeat IPC: 1.19620 cumulative IPC: 1.08479 (Simulation time: 0 hr 6 min 20 sec) 
Heartbeat CPU  0 instructions:  197000000 cycles:  139256136 heartbeat IPC: 1.20838 cumulative IPC: 1.08594 (Simulation time: 0 hr 6 min 22 sec) 
Heartbeat CPU  0 instructions:  198000000 cycles:  140083551 heartbeat IPC: 1.20858 cumulative IPC: 1.08706 (Simulation time: 0 hr 6 min 24 sec) 
Heartbeat CPU  0 instructions:  199000000 cycles:  140911409 heartbeat IPC: 1.20794 cumulative IPC: 1.08816 (Simulation time: 0 hr 6 min 26 sec) 
Heartbeat CPU  0 instructions:  200000000 cycles:  141742253 heartbeat IPC: 1.20360 cumulative IPC: 1.08921 (Simulation time: 0 hr 6 min 28 sec) 
Heartbeat CPU  0 instructions:  201000002 cycles:  142570866 heartbeat IPC: 1.20684 cumulative IPC: 1.09026 (Simulation time: 0 hr 6 min 30 sec) 
Heartbeat CPU  0 instructions:  202000002 cycles:  143398110 heartbeat IPC: 1.20883 cumulative IPC: 1.09131 (Simulation time: 0 hr 6 min 32 sec) 
Heartbeat CPU  0 instructions:  203000003 cycles:  144231426 heartbeat IPC: 1.20003 cumulative IPC: 1.09227 (Simulation time: 0 hr 6 min 34 sec) 
Heartbeat CPU  0 instructions:  204000000 cycles:  145364256 heartbeat IPC: 0.88274 cumulative IPC: 1.08978 (Simulation time: 0 hr 6 min 36 sec) 
Heartbeat CPU  0 instructions:  205000001 cycles:  146347016 heartbeat IPC: 1.01754 cumulative IPC: 1.08905 (Simulation time: 0 hr 6 min 38 sec) 
Heartbeat CPU  0 instructions:  206000003 cycles:  147478785 heartbeat IPC: 0.88357 cumulative IPC: 1.08666 (Simulation time: 0 hr 6 min 40 sec) 
Heartbeat CPU  0 instructions:  207000003 cycles:  148565156 heartbeat IPC: 0.92050 cumulative IPC: 1.08483 (Simulation time: 0 hr 6 min 42 sec) 
Heartbeat CPU  0 instructions:  208000000 cycles:  149671184 heartbeat IPC: 0.90413 cumulative IPC: 1.08283 (Simulation time: 0 hr 6 min 45 sec) 
Heartbeat CPU  0 instructions:  209000000 cycles:  150748262 heartbeat IPC: 0.92844 cumulative IPC: 1.08118 (Simulation time: 0 hr 6 min 47 sec) 
Heartbeat CPU  0 instructions:  210000003 cycles:  151818138 heartbeat IPC: 0.93469 cumulative IPC: 1.07964 (Simulation time: 0 hr 6 min 49 sec) 
Heartbeat CPU  0 instructions:  211000002 cycles:  152967282 heartbeat IPC: 0.87021 cumulative IPC: 1.07731 (Simulation time: 0 hr 6 min 51 sec) 
Heartbeat CPU  0 instructions:  212000000 cycles:  154146147 heartbeat IPC: 0.84827 cumulative IPC: 1.07471 (Simulation time: 0 hr 6 min 53 sec) 
Heartbeat CPU  0 instructions:  213000001 cycles:  155431978 heartbeat IPC: 0.77771 cumulative IPC: 1.07109 (Simulation time: 0 hr 6 min 55 sec) 
Heartbeat CPU  0 instructions:  214000001 cycles:  156623276 heartbeat IPC: 0.83942 cumulative IPC: 1.06851 (Simulation time: 0 hr 6 min 57 sec) 
Heartbeat CPU  0 instructions:  215000002 cycles:  157766658 heartbeat IPC: 0.87460 cumulative IPC: 1.06645 (Simulation time: 0 hr 6 min 59 sec) 
Heartbeat CPU  0 instructions:  216000000 cycles:  158893598 heartbeat IPC: 0.88736 cumulative IPC: 1.06460 (Simulation time: 0 hr 7 min 1 sec) 
Heartbeat CPU  0 instructions:  217000003 cycles:  160044204 heartbeat IPC: 0.86911 cumulative IPC: 1.06256 (Simulation time: 0 hr 7 min 3 sec) 
Heartbeat CPU  0 instructions:  218000003 cycles:  161232035 heartbeat IPC: 0.84187 cumulative IPC: 1.06020 (Simulation time: 0 hr 7 min 5 sec) 
Heartbeat CPU  0 instructions:  219000003 cycles:  162356476 heartbeat IPC: 0.88933 cumulative IPC: 1.05849 (Simulation time: 0 hr 7 min 8 sec) 
Heartbeat CPU  0 instructions:  220000000 cycles:  163601753 heartbeat IPC: 0.80303 cumulative IPC: 1.05569 (Simulation time: 0 hr 7 min 10 sec) 
Heartbeat CPU  0 instructions:  221000003 cycles:  164987189 heartbeat IPC: 0.72180 cumulative IPC: 1.05167 (Simulation time: 0 hr 7 min 12 sec) 
Heartbeat CPU  0 instructions:  222000002 cycles:  166587844 heartbeat IPC: 0.62474 cumulative IPC: 1.04581 (Simulation time: 0 hr 7 min 15 sec) 
Heartbeat CPU  0 instructions:  223000002 cycles:  168180983 heartbeat IPC: 0.62769 cumulative IPC: 1.04018 (Simulation time: 0 hr 7 min 17 sec) 
Heartbeat CPU  0 instructions:  224000000 cycles:  169712543 heartbeat IPC: 0.65293 cumulative IPC: 1.03523 (Simulation time: 0 hr 7 min 20 sec) 
Heartbeat CPU  0 instructions:  225000000 cycles:  171136629 heartbeat IPC: 0.70220 cumulative IPC: 1.03132 (Simulation time: 0 hr 7 min 23 sec) 
Heartbeat CPU  0 instructions:  226000003 cycles:  172541478 heartbeat IPC: 0.71182 cumulative IPC: 1.02766 (Simulation time: 0 hr 7 min 25 sec) 
Heartbeat CPU  0 instructions:  227000001 cycles:  173989550 heartbeat IPC: 0.69057 cumulative IPC: 1.02372 (Simulation time: 0 hr 7 min 28 sec) 
Heartbeat CPU  0 instructions:  228000000 cycles:  175393187 heartbeat IPC: 0.71243 cumulative IPC: 1.02024 (Simulation time: 0 hr 7 min 30 sec) 
Heartbeat CPU  0 instructions:  229000000 cycles:  176780819 heartbeat IPC: 0.72065 cumulative IPC: 1.01696 (Simulation time: 0 hr 7 min 33 sec) 
Heartbeat CPU  0 instructions:  230000000 cycles:  178153474 heartbeat IPC: 0.72852 cumulative IPC: 1.01387 (Simulation time: 0 hr 7 min 35 sec) 
Heartbeat CPU  0 instructions:  231000003 cycles:  179577774 heartbeat IPC: 0.70210 cumulative IPC: 1.01045 (Simulation time: 0 hr 7 min 38 sec) 
Heartbeat CPU  0 instructions:  232000000 cycles:  180986258 heartbeat IPC: 0.70998 cumulative IPC: 1.00722 (Simulation time: 0 hr 7 min 40 sec) 
Heartbeat CPU  0 instructions:  233000000 cycles:  182405863 heartbeat IPC: 0.70442 cumulative IPC: 1.00397 (Simulation time: 0 hr 7 min 43 sec) 
Heartbeat CPU  0 instructions:  234000000 cycles:  183840465 heartbeat IPC: 0.69706 cumulative IPC: 1.00069 (Simulation time: 0 hr 7 min 45 sec) 
Heartbeat CPU  0 instructions:  235000003 cycles:  185261970 heartbeat IPC: 0.70348 cumulative IPC: 0.99756 (Simulation time: 0 hr 7 min 48 sec) 
Heartbeat CPU  0 instructions:  236000000 cycles:  186683952 heartbeat IPC: 0.70324 cumulative IPC: 0.99450 (Simulation time: 0 hr 7 min 51 sec) 
Heartbeat CPU  0 instructions:  237000000 cycles:  188102983 heartbeat IPC: 0.70471 cumulative IPC: 0.99153 (Simulation time: 0 hr 7 min 53 sec) 
Heartbeat CPU  0 instructions:  238000002 cycles:  189507704 heartbeat IPC: 0.71189 cumulative IPC: 0.98871 (Simulation time: 0 hr 7 min 56 sec) 
Heartbeat CPU  0 instructions:  239000000 cycles:  190928568 heartbeat IPC: 0.70380 cumulative IPC: 0.98584 (Simulation time: 0 hr 7 min 58 sec) 
Heartbeat CPU  0 instructions:  240000000 cycles:  192339739 heartbeat IPC: 0.70863 cumulative IPC: 0.98310 (Simulation time: 0 hr 8 min 1 sec) 
Heartbeat CPU  0 instructions:  241000002 cycles:  193751237 heartbeat IPC: 0.70847 cumulative IPC: 0.98040 (Simulation time: 0 hr 8 min 3 sec) 
Heartbeat CPU  0 instructions:  242000002 cycles:  195151431 heartbeat IPC: 0.71419 cumulative IPC: 0.97783 (Simulation time: 0 hr 8 min 6 sec) 
Heartbeat CPU  0 instructions:  243000001 cycles:  196552285 heartbeat IPC: 0.71385 cumulative IPC: 0.97531 (Simulation time: 0 hr 8 min 8 sec) 
Heartbeat CPU  0 instructions:  244000000 cycles:  197954187 heartbeat IPC: 0.71332 cumulative IPC: 0.97283 (Simulation time: 0 hr 8 min 11 sec) 
Heartbeat CPU  0 instructions:  245000002 cycles:  199347355 heartbeat IPC: 0.71779 cumulative IPC: 0.97045 (Simulation time: 0 hr 8 min 14 sec) 
Heartbeat CPU  0 instructions:  246000003 cycles:  200745168 heartbeat IPC: 0.71540 cumulative IPC: 0.96809 (Simulation time: 0 hr 8 min 16 sec) 
Heartbeat CPU  0 instructions:  247000002 cycles:  202173561 heartbeat IPC: 0.70009 cumulative IPC: 0.96557 (Simulation time: 0 hr 8 min 19 sec) 
Heartbeat CPU  0 instructions:  248000000 cycles:  203581393 heartbeat IPC: 0.71031 cumulative IPC: 0.96323 (Simulation time: 0 hr 8 min 21 sec) 
Heartbeat CPU  0 instructions:  249000000 cycles:  204995511 heartbeat IPC: 0.70715 cumulative IPC: 0.96090 (Simulation time: 0 hr 8 min 24 sec) 
Heartbeat CPU  0 instructions:  250000000 cycles:  206388662 heartbeat IPC: 0.71780 cumulative IPC: 0.95873 (Simulation time: 0 hr 8 min 26 sec) 
Heartbeat CPU  0 instructions:  251000002 cycles:  207797124 heartbeat IPC: 0.71000 cumulative IPC: 0.95652 (Simulation time: 0 hr 8 min 29 sec) 
Heartbeat CPU  0 instructions:  252000000 cycles:  209214286 heartbeat IPC: 0.70563 cumulative IPC: 0.95428 (Simulation time: 0 hr 8 min 31 sec) 
Heartbeat CPU  0 instructions:  253000001 cycles:  210637979 heartbeat IPC: 0.70240 cumulative IPC: 0.95205 (Simulation time: 0 hr 8 min 34 sec) 
Heartbeat CPU  0 instructions:  254000000 cycles:  212046519 heartbeat IPC: 0.70995 cumulative IPC: 0.94995 (Simulation time: 0 hr 8 min 36 sec) 
Heartbeat CPU  0 instructions:  255000001 cycles:  213463042 heartbeat IPC: 0.70595 cumulative IPC: 0.94783 (Simulation time: 0 hr 8 min 39 sec) 
Heartbeat CPU  0 instructions:  256000000 cycles:  214862357 heartbeat IPC: 0.71463 cumulative IPC: 0.94586 (Simulation time: 0 hr 8 min 42 sec) 
Heartbeat CPU  0 instructions:  257000001 cycles:  216269321 heartbeat IPC: 0.71075 cumulative IPC: 0.94387 (Simulation time: 0 hr 8 min 44 sec) 
Heartbeat CPU  0 instructions:  258000001 cycles:  217685059 heartbeat IPC: 0.70635 cumulative IPC: 0.94186 (Simulation time: 0 hr 8 min 47 sec) 
Heartbeat CPU  0 instructions:  259000000 cycles:  218686759 heartbeat IPC: 0.99830 cumulative IPC: 0.94220 (Simulation time: 0 hr 8 min 49 sec) 
Heartbeat CPU  0 instructions:  260000000 cycles:  219535049 heartbeat IPC: 1.17884 cumulative IPC: 0.94338 (Simulation time: 0 hr 8 min 51 sec) 
Heartbeat CPU  0 instructions:  261000000 cycles:  220384353 heartbeat IPC: 1.17743 cumulative IPC: 0.94455 (Simulation time: 0 hr 8 min 53 sec) 
Heartbeat CPU  0 instructions:  262000001 cycles:  221234892 heartbeat IPC: 1.17573 cumulative IPC: 0.94570 (Simulation time: 0 hr 8 min 55 sec) 
Heartbeat CPU  0 instructions:  263000001 cycles:  222085428 heartbeat IPC: 1.17573 cumulative IPC: 0.94683 (Simulation time: 0 hr 8 min 58 sec) 
Heartbeat CPU  0 instructions:  264000000 cycles:  222933866 heartbeat IPC: 1.17864 cumulative IPC: 0.94797 (Simulation time: 0 hr 9 min 0 sec) 
Heartbeat CPU  0 instructions:  265000001 cycles:  223782224 heartbeat IPC: 1.17875 cumulative IPC: 0.94910 (Simulation time: 0 hr 9 min 2 sec) 
Heartbeat CPU  0 instructions:  266000001 cycles:  224632380 heartbeat IPC: 1.17625 cumulative IPC: 0.95020 (Simulation time: 0 hr 9 min 4 sec) 
Heartbeat CPU  0 instructions:  267000002 cycles:  225479844 heartbeat IPC: 1.17999 cumulative IPC: 0.95131 (Simulation time: 0 hr 9 min 6 sec) 
Heartbeat CPU  0 instructions:  268000000 cycles:  226289642 heartbeat IPC: 1.23487 cumulative IPC: 0.95261 (Simulation time: 0 hr 9 min 8 sec) 
Heartbeat CPU  0 instructions:  269000001 cycles:  227146208 heartbeat IPC: 1.16745 cumulative IPC: 0.95365 (Simulation time: 0 hr 9 min 10 sec) 
Heartbeat CPU  0 instructions:  270000000 cycles:  228028024 heartbeat IPC: 1.13402 cumulative IPC: 0.95454 (Simulation time: 0 hr 9 min 12 sec) 
Heartbeat CPU  0 instructions:  271000002 cycles:  228910470 heartbeat IPC: 1.13322 cumulative IPC: 0.95542 (Simulation time: 0 hr 9 min 14 sec) 
Heartbeat CPU  0 instructions:  272000000 cycles:  229793330 heartbeat IPC: 1.13268 cumulative IPC: 0.95629 (Simulation time: 0 hr 9 min 17 sec) 
Heartbeat CPU  0 instructions:  273000003 cycles:  230678911 heartbeat IPC: 1.12921 cumulative IPC: 0.95714 (Simulation time: 0 hr 9 min 19 sec) 
Heartbeat CPU  0 instructions:  274000002 cycles:  231554287 heartbeat IPC: 1.14237 cumulative IPC: 0.95803 (Simulation time: 0 hr 9 min 21 sec) 
Heartbeat CPU  0 instructions:  275000000 cycles:  232434012 heartbeat IPC: 1.13672 cumulative IPC: 0.95890 (Simulation time: 0 hr 9 min 23 sec) 
Heartbeat CPU  0 instructions:  276000000 cycles:  233306687 heartbeat IPC: 1.14590 cumulative IPC: 0.95979 (Simulation time: 0 hr 9 min 25 sec) 
Heartbeat CPU  0 instructions:  277000001 cycles:  234179037 heartbeat IPC: 1.14633 cumulative IPC: 0.96067 (Simulation time: 0 hr 9 min 27 sec) 
Heartbeat CPU  0 instructions:  278000001 cycles:  235002692 heartbeat IPC: 1.21410 cumulative IPC: 0.96180 (Simulation time: 0 hr 9 min 29 sec) 
Heartbeat CPU  0 instructions:  279000003 cycles:  235816023 heartbeat IPC: 1.22951 cumulative IPC: 0.96297 (Simulation time: 0 hr 9 min 31 sec) 
Heartbeat CPU  0 instructions:  280000000 cycles:  236710152 heartbeat IPC: 1.11840 cumulative IPC: 0.96371 (Simulation time: 0 hr 9 min 33 sec) 
Heartbeat CPU  0 instructions:  281000000 cycles:  237601372 heartbeat IPC: 1.12206 cumulative IPC: 0.96446 (Simulation time: 0 hr 9 min 35 sec) 
Heartbeat CPU  0 instructions:  282000002 cycles:  238483169 heartbeat IPC: 1.13405 cumulative IPC: 0.96526 (Simulation time: 0 hr 9 min 38 sec) 
Heartbeat CPU  0 instructions:  283000003 cycles:  239383559 heartbeat IPC: 1.11063 cumulative IPC: 0.96595 (Simulation time: 0 hr 9 min 40 sec) 
Heartbeat CPU  0 instructions:  284000000 cycles:  240279343 heartbeat IPC: 1.11634 cumulative IPC: 0.96666 (Simulation time: 0 hr 9 min 42 sec) 
Heartbeat CPU  0 instructions:  285000001 cycles:  241150277 heartbeat IPC: 1.14819 cumulative IPC: 0.96748 (Simulation time: 0 hr 9 min 44 sec) 
Heartbeat CPU  0 instructions:  286000001 cycles:  242052782 heartbeat IPC: 1.10803 cumulative IPC: 0.96814 (Simulation time: 0 hr 9 min 46 sec) 
Heartbeat CPU  0 instructions:  287000003 cycles:  242952045 heartbeat IPC: 1.11202 cumulative IPC: 0.96881 (Simulation time: 0 hr 9 min 48 sec) 
Heartbeat CPU  0 instructions:  288000000 cycles:  243799128 heartbeat IPC: 1.18052 cumulative IPC: 0.96974 (Simulation time: 0 hr 9 min 51 sec) 
Heartbeat CPU  0 instructions:  289000000 cycles:  244601389 heartbeat IPC: 1.24648 cumulative IPC: 0.97088 (Simulation time: 0 hr 9 min 53 sec) 
Heartbeat CPU  0 instructions:  290000003 cycles:  245483359 heartbeat IPC: 1.13383 cumulative IPC: 0.97161 (Simulation time: 0 hr 9 min 55 sec) 
Heartbeat CPU  0 instructions:  291000002 cycles:  246377261 heartbeat IPC: 1.11869 cumulative IPC: 0.97228 (Simulation time: 0 hr 9 min 57 sec) 
Heartbeat CPU  0 instructions:  292000000 cycles:  247267980 heartbeat IPC: 1.12269 cumulative IPC: 0.97296 (Simulation time: 0 hr 9 min 59 sec) 
Heartbeat CPU  0 instructions:  293000003 cycles:  248185341 heartbeat IPC: 1.09009 cumulative IPC: 0.97350 (Simulation time: 0 hr 10 min 1 sec) 
Heartbeat CPU  0 instructions:  294000000 cycles:  249075172 heartbeat IPC: 1.12381 cumulative IPC: 0.97418 (Simulation time: 0 hr 10 min 3 sec) 
Heartbeat CPU  0 instructions:  295000000 cycles:  249977872 heartbeat IPC: 1.10779 cumulative IPC: 0.97478 (Simulation time: 0 hr 10 min 5 sec) 
Heartbeat CPU  0 instructions:  296000000 cycles:  250879270 heartbeat IPC: 1.10939 cumulative IPC: 0.97538 (Simulation time: 0 hr 10 min 7 sec) 
Heartbeat CPU  0 instructions:  297000000 cycles:  251759698 heartbeat IPC: 1.13581 cumulative IPC: 0.97608 (Simulation time: 0 hr 10 min 10 sec) 
Heartbeat CPU  0 instructions:  298000000 cycles:  252638939 heartbeat IPC: 1.13734 cumulative IPC: 0.97678 (Simulation time: 0 hr 10 min 12 sec) 
Heartbeat CPU  0 instructions:  299000002 cycles:  253454668 heartbeat IPC: 1.22590 cumulative IPC: 0.97778 (Simulation time: 0 hr 10 min 14 sec) 
Heartbeat CPU  0 instructions:  300000000 cycles:  254285642 heartbeat IPC: 1.20340 cumulative IPC: 0.97870 (Simulation time: 0 hr 10 min 16 sec) 
Heartbeat CPU  0 instructions:  301000003 cycles:  255201365 heartbeat IPC: 1.09204 cumulative IPC: 0.97920 (Simulation time: 0 hr 10 min 18 sec) 
Heartbeat CPU  0 instructions:  302000002 cycles:  256119263 heartbeat IPC: 1.08944 cumulative IPC: 0.97969 (Simulation time: 0 hr 10 min 20 sec) 
Heartbeat CPU  0 instructions:  303000000 cycles:  257026991 heartbeat IPC: 1.10165 cumulative IPC: 0.98023 (Simulation time: 0 hr 10 min 22 sec) 
Heartbeat CPU  0 instructions:  304000000 cycles:  257932828 heartbeat IPC: 1.10395 cumulative IPC: 0.98077 (Simulation time: 0 hr 10 min 24 sec) 
Heartbeat CPU  0 instructions:  305000001 cycles:  258842764 heartbeat IPC: 1.09898 cumulative IPC: 0.98128 (Simulation time: 0 hr 10 min 27 sec) 
Heartbeat CPU  0 instructions:  306000000 cycles:  259750748 heartbeat IPC: 1.10134 cumulative IPC: 0.98180 (Simulation time: 0 hr 10 min 29 sec) 
Heartbeat CPU  0 instructions:  307000003 cycles:  260643281 heartbeat IPC: 1.12041 cumulative IPC: 0.98239 (Simulation time: 0 hr 10 min 31 sec) 
Heartbeat CPU  0 instructions:  308000000 cycles:  261535505 heartbeat IPC: 1.12079 cumulative IPC: 0.98297 (Simulation time: 0 hr 10 min 33 sec) 
Heartbeat CPU  0 instructions:  309000000 cycles:  262367970 heartbeat IPC: 1.20125 cumulative IPC: 0.98383 (Simulation time: 0 hr 10 min 35 sec) 
Heartbeat CPU  0 instructions:  310000001 cycles:  263179636 heartbeat IPC: 1.23204 cumulative IPC: 0.98477 (Simulation time: 0 hr 10 min 37 sec) 
Heartbeat CPU  0 instructions:  311000001 cycles:  264064981 heartbeat IPC: 1.12950 cumulative IPC: 0.98537 (Simulation time: 0 hr 10 min 39 sec) 
Heartbeat CPU  0 instructions:  312000000 cycles:  264980370 heartbeat IPC: 1.09243 cumulative IPC: 0.98583 (Simulation time: 0 hr 10 min 41 sec) 
Heartbeat CPU  0 instructions:  313000000 cycles:  265884636 heartbeat IPC: 1.10587 cumulative IPC: 0.98633 (Simulation time: 0 hr 10 min 43 sec) 
Heartbeat CPU  0 instructions:  314000003 cycles:  266786982 heartbeat IPC: 1.10823 cumulative IPC: 0.98684 (Simulation time: 0 hr 10 min 46 sec) 
Heartbeat CPU  0 instructions:  315000000 cycles:  267689249 heartbeat IPC: 1.10832 cumulative IPC: 0.98734 (Simulation time: 0 hr 10 min 48 sec) 
Heartbeat CPU  0 instructions:  316000000 cycles:  268589307 heartbeat IPC: 1.11104 cumulative IPC: 0.98785 (Simulation time: 0 hr 10 min 50 sec) 
Heartbeat CPU  0 instructions:  317000000 cycles:  269487715 heartbeat IPC: 1.11308 cumulative IPC: 0.98836 (Simulation time: 0 hr 10 min 52 sec) 
Heartbeat CPU  0 instructions:  318000003 cycles:  270390953 heartbeat IPC: 1.10713 cumulative IPC: 0.98885 (Simulation time: 0 hr 10 min 54 sec) 
Heartbeat CPU  0 instructions:  319000000 cycles:  271263312 heartbeat IPC: 1.14631 cumulative IPC: 0.98947 (Simulation time: 0 hr 10 min 56 sec) 
Heartbeat CPU  0 instructions:  320000000 cycles:  272075315 heartbeat IPC: 1.23152 cumulative IPC: 0.99035 (Simulation time: 0 hr 10 min 58 sec) 
Heartbeat CPU  0 instructions:  321000003 cycles:  272928231 heartbeat IPC: 1.17245 cumulative IPC: 0.99105 (Simulation time: 0 hr 11 min 0 sec) 
Heartbeat CPU  0 instructions:  322000002 cycles:  273857839 heartbeat IPC: 1.07572 cumulative IPC: 0.99140 (Simulation time: 0 hr 11 min 2 sec) 
Heartbeat CPU  0 instructions:  323000000 cycles:  274756004 heartbeat IPC: 1.11338 cumulative IPC: 0.99189 (Simulation time: 0 hr 11 min 5 sec) 
Heartbeat CPU  0 instructions:  324000000 cycles:  275664895 heartbeat IPC: 1.10024 cumulative IPC: 0.99233 (Simulation time: 0 hr 11 min 7 sec) 
Heartbeat CPU  0 instructions:  325000000 cycles:  276579599 heartbeat IPC: 1.09325 cumulative IPC: 0.99273 (Simulation time: 0 hr 11 min 9 sec) 
Heartbeat CPU  0 instructions:  326000002 cycles:  277474365 heartbeat IPC: 1.11761 cumulative IPC: 0.99322 (Simulation time: 0 hr 11 min 11 sec) 
Heartbeat CPU  0 instructions:  327000000 cycles:  278373775 heartbeat IPC: 1.11184 cumulative IPC: 0.99369 (Simulation time: 0 hr 11 min 13 sec) 
Heartbeat CPU  0 instructions:  328000000 cycles:  279269309 heartbeat IPC: 1.11665 cumulative IPC: 0.99417 (Simulation time: 0 hr 11 min 15 sec) 
Heartbeat CPU  0 instructions:  329000003 cycles:  280163984 heartbeat IPC: 1.11773 cumulative IPC: 0.99465 (Simulation time: 0 hr 11 min 18 sec) 
Heartbeat CPU  0 instructions:  330000000 cycles:  280991339 heartbeat IPC: 1.20867 cumulative IPC: 0.99542 (Simulation time: 0 hr 11 min 20 sec) 
Heartbeat CPU  0 instructions:  331000002 cycles:  281804908 heartbeat IPC: 1.22915 cumulative IPC: 0.99624 (Simulation time: 0 hr 11 min 22 sec) 
Heartbeat CPU  0 instructions:  332000000 cycles:  282724149 heartbeat IPC: 1.08785 cumulative IPC: 0.99660 (Simulation time: 0 hr 11 min 24 sec) 
Heartbeat CPU  0 instructions:  333000002 cycles:  283656791 heartbeat IPC: 1.07222 cumulative IPC: 0.99690 (Simulation time: 0 hr 11 min 27 sec) 
Heartbeat CPU  0 instructions:  334000001 cycles:  284557811 heartbeat IPC: 1.10985 cumulative IPC: 0.99733 (Simulation time: 0 hr 11 min 29 sec) 
Heartbeat CPU  0 instructions:  335000003 cycles:  285477736 heartbeat IPC: 1.08705 cumulative IPC: 0.99768 (Simulation time: 0 hr 11 min 31 sec) 
Heartbeat CPU  0 instructions:  336000000 cycles:  286400826 heartbeat IPC: 1.08331 cumulative IPC: 0.99802 (Simulation time: 0 hr 11 min 34 sec) 
Heartbeat CPU  0 instructions:  337000001 cycles:  287316587 heartbeat IPC: 1.09199 cumulative IPC: 0.99838 (Simulation time: 0 hr 11 min 36 sec) 
Heartbeat CPU  0 instructions:  338000000 cycles:  288202566 heartbeat IPC: 1.12869 cumulative IPC: 0.99887 (Simulation time: 0 hr 11 min 38 sec) 
Heartbeat CPU  0 instructions:  339000000 cycles:  289095568 heartbeat IPC: 1.11982 cumulative IPC: 0.99932 (Simulation time: 0 hr 11 min 41 sec) 
Heartbeat CPU  0 instructions:  340000000 cycles:  289967420 heartbeat IPC: 1.14698 cumulative IPC: 0.99985 (Simulation time: 0 hr 11 min 43 sec) 
Heartbeat CPU  0 instructions:  341000003 cycles:  290785871 heartbeat IPC: 1.22182 cumulative IPC: 1.00061 (Simulation time: 0 hr 11 min 45 sec) 
Heartbeat CPU  0 instructions:  342000001 cycles:  291633639 heartbeat IPC: 1.17957 cumulative IPC: 1.00124 (Simulation time: 0 hr 11 min 48 sec) 
Heartbeat CPU  0 instructions:  343000002 cycles:  292534526 heartbeat IPC: 1.11002 cumulative IPC: 1.00164 (Simulation time: 0 hr 11 min 50 sec) 
Heartbeat CPU  0 instructions:  344000000 cycles:  293452582 heartbeat IPC: 1.08926 cumulative IPC: 1.00197 (Simulation time: 0 hr 11 min 52 sec) 
Heartbeat CPU  0 instructions:  345000003 cycles:  294361914 heartbeat IPC: 1.09971 cumulative IPC: 1.00233 (Simulation time: 0 hr 11 min 54 sec) 
Heartbeat CPU  0 instructions:  346000000 cycles:  295270120 heartbeat IPC: 1.10107 cumulative IPC: 1.00270 (Simulation time: 0 hr 11 min 57 sec) 
Heartbeat CPU  0 instructions:  347000000 cycles:  296192859 heartbeat IPC: 1.08373 cumulative IPC: 1.00300 (Simulation time: 0 hr 11 min 59 sec) 
Heartbeat CPU  0 instructions:  348000000 cycles:  297090879 heartbeat IPC: 1.11356 cumulative IPC: 1.00340 (Simulation time: 0 hr 12 min 1 sec) 
Heartbeat CPU  0 instructions:  349000001 cycles:  297983660 heartbeat IPC: 1.12010 cumulative IPC: 1.00382 (Simulation time: 0 hr 12 min 3 sec) 
Heartbeat CPU  0 instructions:  350000002 cycles:  298881215 heartbeat IPC: 1.11414 cumulative IPC: 1.00422 (Simulation time: 0 hr 12 min 5 sec) 
Heartbeat CPU  0 instructions:  351000001 cycles:  299718784 heartbeat IPC: 1.19393 cumulative IPC: 1.00486 (Simulation time: 0 hr 12 min 8 sec) 
Heartbeat CPU  0 instructions:  352000000 cycles:  300527293 heartbeat IPC: 1.23684 cumulative IPC: 1.00561 (Simulation time: 0 hr 12 min 10 sec) 
Heartbeat CPU  0 instructions:  353000002 cycles:  301427941 heartbeat IPC: 1.11031 cumulative IPC: 1.00598 (Simulation time: 0 hr 12 min 12 sec) 
Heartbeat CPU  0 instructions:  354000002 cycles:  302328042 heartbeat IPC: 1.11099 cumulative IPC: 1.00636 (Simulation time: 0 hr 12 min 14 sec) 
Heartbeat CPU  0 instructions:  355000003 cycles:  303230605 heartbeat IPC: 1.10796 cumulative IPC: 1.00672 (Simulation time: 0 hr 12 min 16 sec) 
Heartbeat CPU  0 instructions:  356000000 cycles:  304143002 heartbeat IPC: 1.09601 cumulative IPC: 1.00704 (Simulation time: 0 hr 12 min 18 sec) 
Heartbeat CPU  0 instructions:  357000002 cycles:  305068690 heartbeat IPC: 1.08028 cumulative IPC: 1.00730 (Simulation time: 0 hr 12 min 20 sec) 
Heartbeat CPU  0 instructions:  358000003 cycles:  305992433 heartbeat IPC: 1.08255 cumulative IPC: 1.00758 (Simulation time: 0 hr 12 min 22 sec) 
Heartbeat CPU  0 instructions:  359000001 cycles:  306889697 heartbeat IPC: 1.11450 cumulative IPC: 1.00795 (Simulation time: 0 hr 12 min 25 sec) 
Heartbeat CPU  0 instructions:  360000000 cycles:  307800894 heartbeat IPC: 1.09746 cumulative IPC: 1.00827 (Simulation time: 0 hr 12 min 27 sec) 
Heartbeat CPU  0 instructions:  361000003 cycles:  308654338 heartbeat IPC: 1.17173 cumulative IPC: 1.00881 (Simulation time: 0 hr 12 min 29 sec) 
Heartbeat CPU  0 instructions:  362000000 cycles:  309456180 heartbeat IPC: 1.24712 cumulative IPC: 1.00954 (Simulation time: 0 hr 12 min 31 sec) 
Heartbeat CPU  0 instructions:  363000001 cycles:  310315076 heartbeat IPC: 1.16429 cumulative IPC: 1.01005 (Simulation time: 0 hr 12 min 33 sec) 
Heartbeat CPU  0 instructions:  364000000 cycles:  311206849 heartbeat IPC: 1.12136 cumulative IPC: 1.01043 (Simulation time: 0 hr 12 min 35 sec) 
Heartbeat CPU  0 instructions:  365000000 cycles:  312125571 heartbeat IPC: 1.08847 cumulative IPC: 1.01071 (Simulation time: 0 hr 12 min 37 sec) 
Heartbeat CPU  0 instructions:  366000001 cycles:  313040350 heartbeat IPC: 1.09316 cumulative IPC: 1.01099 (Simulation time: 0 hr 12 min 39 sec) 
Heartbeat CPU  0 instructions:  367000002 cycles:  313979672 heartbeat IPC: 1.06460 cumulative IPC: 1.01118 (Simulation time: 0 hr 12 min 41 sec) 
Heartbeat CPU  0 instructions:  368000000 cycles:  314897971 heartbeat IPC: 1.08897 cumulative IPC: 1.01145 (Simulation time: 0 hr 12 min 44 sec) 
Heartbeat CPU  0 instructions:  369000001 cycles:  315826362 heartbeat IPC: 1.07713 cumulative IPC: 1.01168 (Simulation time: 0 hr 12 min 46 sec) 
Heartbeat CPU  0 instructions:  370000002 cycles:  316742531 heartbeat IPC: 1.09150 cumulative IPC: 1.01196 (Simulation time: 0 hr 12 min 48 sec) 
Heartbeat CPU  0 instructions:  371000000 cycles:  317622335 heartbeat IPC: 1.13661 cumulative IPC: 1.01237 (Simulation time: 0 hr 12 min 50 sec) 
Heartbeat CPU  0 instructions:  372000000 cycles:  318452198 heartbeat IPC: 1.20502 cumulative IPC: 1.01296 (Simulation time: 0 hr 12 min 52 sec) 
Heartbeat CPU  0 instructions:  373000003 cycles:  319284700 heartbeat IPC: 1.20120 cumulative IPC: 1.01354 (Simulation time: 0 hr 12 min 54 sec) 
Heartbeat CPU  0 instructions:  374000003 cycles:  320164621 heartbeat IPC: 1.13647 cumulative IPC: 1.01394 (Simulation time: 0 hr 12 min 56 sec) 
Heartbeat CPU  0 instructions:  375000001 cycles:  321072876 heartbeat IPC: 1.10101 cumulative IPC: 1.01423 (Simulation time: 0 hr 12 min 58 sec) 
Heartbeat CPU  0 instructions:  376000000 cycles:  321979246 heartbeat IPC: 1.10330 cumulative IPC: 1.01453 (Simulation time: 0 hr 13 min 1 sec) 
Heartbeat CPU  0 instructions:  377000001 cycles:  322906812 heartbeat IPC: 1.07809 cumulative IPC: 1.01475 (Simulation time: 0 hr 13 min 3 sec) 
Heartbeat CPU  0 instructions:  378000002 cycles:  323816051 heartbeat IPC: 1.09982 cumulative IPC: 1.01503 (Simulation time: 0 hr 13 min 5 sec) 
Heartbeat CPU  0 instructions:  379000001 cycles:  324727530 heartbeat IPC: 1.09712 cumulative IPC: 1.01530 (Simulation time: 0 hr 13 min 7 sec) 
Heartbeat CPU  0 instructions:  380000000 cycles:  325637253 heartbeat IPC: 1.09923 cumulative IPC: 1.01558 (Simulation time: 0 hr 13 min 9 sec) 
Heartbeat CPU  0 instructions:  381000000 cycles:  326540590 heartbeat IPC: 1.10701 cumulative IPC: 1.01588 (Simulation time: 0 hr 13 min 11 sec) 
Heartbeat CPU  0 instructions:  382000003 cycles:  327394647 heartbeat IPC: 1.17089 cumulative IPC: 1.01635 (Simulation time: 0 hr 13 min 13 sec) 
Heartbeat CPU  0 instructions:  383000001 cycles:  328217645 heartbeat IPC: 1.21507 cumulative IPC: 1.01694 (Simulation time: 0 hr 13 min 15 sec) 
Heartbeat CPU  0 instructions:  384000000 cycles:  329082016 heartbeat IPC: 1.15691 cumulative IPC: 1.01738 (Simulation time: 0 hr 13 min 18 sec) 
Heartbeat CPU  0 instructions:  385000000 cycles:  329977729 heartbeat IPC: 1.11643 cumulative IPC: 1.01769 (Simulation time: 0 hr 13 min 20 sec) 
Heartbeat CPU  0 instructions:  386000001 cycles:  330879723 heartbeat IPC: 1.10866 cumulative IPC: 1.01798 (Simulation time: 0 hr 13 min 22 sec) 
Heartbeat CPU  0 instructions:  387000000 cycles:  331798557 heartbeat IPC: 1.08833 cumulative IPC: 1.01821 (Simulation time: 0 hr 13 min 24 sec) 
Heartbeat CPU  0 instructions:  388000000 cycles:  332716611 heartbeat IPC: 1.08926 cumulative IPC: 1.01844 (Simulation time: 0 hr 13 min 26 sec) 
Heartbeat CPU  0 instructions:  389000001 cycles:  333619728 heartbeat IPC: 1.10728 cumulative IPC: 1.01873 (Simulation time: 0 hr 13 min 28 sec) 
Heartbeat CPU  0 instructions:  390000000 cycles:  334534193 heartbeat IPC: 1.09353 cumulative IPC: 1.01897 (Simulation time: 0 hr 13 min 30 sec) 
Heartbeat CPU  0 instructions:  391000002 cycles:  335438400 heartbeat IPC: 1.10594 cumulative IPC: 1.01924 (Simulation time: 0 hr 13 min 33 sec) 
Heartbeat CPU  0 instructions:  392000000 cycles:  336318806 heartbeat IPC: 1.13584 cumulative IPC: 1.01960 (Simulation time: 0 hr 13 min 35 sec) 
Heartbeat CPU  0 instructions:  393000002 cycles:  337129271 heartbeat IPC: 1.23386 cumulative IPC: 1.02021 (Simulation time: 0 hr 13 min 37 sec) 
Heartbeat CPU  0 instructions:  394000000 cycles:  337962795 heartbeat IPC: 1.19972 cumulative IPC: 1.02073 (Simulation time: 0 hr 13 min 39 sec) 
Heartbeat CPU  0 instructions:  395000002 cycles:  338874108 heartbeat IPC: 1.09732 cumulative IPC: 1.02097 (Simulation time: 0 hr 13 min 41 sec) 
Heartbeat CPU  0 instructions:  396000000 cycles:  339793681 heartbeat IPC: 1.08746 cumulative IPC: 1.02118 (Simulation time: 0 hr 13 min 43 sec) 
Heartbeat CPU  0 instructions:  397000003 cycles:  340704460 heartbeat IPC: 1.09796 cumulative IPC: 1.02142 (Simulation time: 0 hr 13 min 45 sec) 
Heartbeat CPU  0 instructions:  398000001 cycles:  341612631 heartbeat IPC: 1.10111 cumulative IPC: 1.02167 (Simulation time: 0 hr 13 min 47 sec) 
Heartbeat CPU  0 instructions:  399000000 cycles:  342522126 heartbeat IPC: 1.09951 cumulative IPC: 1.02191 (Simulation time: 0 hr 13 min 49 sec) 
Heartbeat CPU  0 instructions:  400000000 cycles:  343434035 heartbeat IPC: 1.09660 cumulative IPC: 1.02214 (Simulation time: 0 hr 13 min 52 sec) 
Heartbeat CPU  0 instructions:  401000002 cycles:  344358232 heartbeat IPC: 1.08202 cumulative IPC: 1.02233 (Simulation time: 0 hr 13 min 54 sec) 
Heartbeat CPU  0 instructions:  402000000 cycles:  345253542 heartbeat IPC: 1.11693 cumulative IPC: 1.02262 (Simulation time: 0 hr 13 min 56 sec) 
Heartbeat CPU  0 instructions:  403000000 cycles:  346096497 heartbeat IPC: 1.18630 cumulative IPC: 1.02308 (Simulation time: 0 hr 13 min 58 sec) 
Heartbeat CPU  0 instructions:  404000000 cycles:  346909986 heartbeat IPC: 1.22927 cumulative IPC: 1.02365 (Simulation time: 0 hr 14 min 0 sec) 
Heartbeat CPU  0 instructions:  405000003 cycles:  347804300 heartbeat IPC: 1.11818 cumulative IPC: 1.02393 (Simulation time: 0 hr 14 min 2 sec) 
Heartbeat CPU  0 instructions:  406000003 cycles:  348879003 heartbeat IPC: 0.93049 cumulative IPC: 1.02359 (Simulation time: 0 hr 14 min 4 sec) 
Heartbeat CPU  0 instructions:  407000000 cycles:  349889539 heartbeat IPC: 0.98957 cumulative IPC: 1.02348 (Simulation time: 0 hr 14 min 6 sec) 
Heartbeat CPU  0 instructions:  408000000 cycles:  350903066 heartbeat IPC: 0.98665 cumulative IPC: 1.02336 (Simulation time: 0 hr 14 min 9 sec) 
Heartbeat CPU  0 instructions:  409000003 cycles:  351932569 heartbeat IPC: 0.97135 cumulative IPC: 1.02318 (Simulation time: 0 hr 14 min 11 sec) 
Heartbeat CPU  0 instructions:  410000000 cycles:  352956264 heartbeat IPC: 0.97685 cumulative IPC: 1.02302 (Simulation time: 0 hr 14 min 13 sec) 
Heartbeat CPU  0 instructions:  411000000 cycles:  353972389 heartbeat IPC: 0.98413 cumulative IPC: 1.02289 (Simulation time: 0 hr 14 min 15 sec) 
Heartbeat CPU  0 instructions:  412000000 cycles:  354986046 heartbeat IPC: 0.98653 cumulative IPC: 1.02277 (Simulation time: 0 hr 14 min 17 sec) 
Heartbeat CPU  0 instructions:  413000003 cycles:  355999069 heartbeat IPC: 0.98715 cumulative IPC: 1.02265 (Simulation time: 0 hr 14 min 20 sec) 
Heartbeat CPU  0 instructions:  414000000 cycles:  357010727 heartbeat IPC: 0.98847 cumulative IPC: 1.02254 (Simulation time: 0 hr 14 min 22 sec) 
Heartbeat CPU  0 instructions:  415000003 cycles:  358039733 heartbeat IPC: 0.97181 cumulative IPC: 1.02237 (Simulation time: 0 hr 14 min 24 sec) 
Heartbeat CPU  0 instructions:  416000000 cycles:  359037667 heartbeat IPC: 1.00207 cumulative IPC: 1.02231 (Simulation time: 0 hr 14 min 26 sec) 
Heartbeat CPU  0 instructions:  417000001 cycles:  360053506 heartbeat IPC: 0.98441 cumulative IPC: 1.02218 (Simulation time: 0 hr 14 min 29 sec) 
Heartbeat CPU  0 instructions:  418000003 cycles:  361056281 heartbeat IPC: 0.99723 cumulative IPC: 1.02210 (Simulation time: 0 hr 14 min 31 sec) 
Heartbeat CPU  0 instructions:  419000002 cycles:  362066910 heartbeat IPC: 0.98948 cumulative IPC: 1.02200 (Simulation time: 0 hr 14 min 33 sec) 
Heartbeat CPU  0 instructions:  420000000 cycles:  363079687 heartbeat IPC: 0.98738 cumulative IPC: 1.02188 (Simulation time: 0 hr 14 min 35 sec) 
Heartbeat CPU  0 instructions:  421000003 cycles:  364092543 heartbeat IPC: 0.98731 cumulative IPC: 1.02177 (Simulation time: 0 hr 14 min 37 sec) 
Heartbeat CPU  0 instructions:  422000003 cycles:  365100738 heartbeat IPC: 0.99187 cumulative IPC: 1.02168 (Simulation time: 0 hr 14 min 39 sec) 
Heartbeat CPU  0 instructions:  423000002 cycles:  366113123 heartbeat IPC: 0.98777 cumulative IPC: 1.02157 (Simulation time: 0 hr 14 min 42 sec) 
Heartbeat CPU  0 instructions:  424000000 cycles:  367117837 heartbeat IPC: 0.99531 cumulative IPC: 1.02148 (Simulation time: 0 hr 14 min 44 sec) 
Heartbeat CPU  0 instructions:  425000003 cycles:  368130281 heartbeat IPC: 0.98771 cumulative IPC: 1.02138 (Simulation time: 0 hr 14 min 46 sec) 
Heartbeat CPU  0 instructions:  426000001 cycles:  369132653 heartbeat IPC: 0.99763 cumulative IPC: 1.02130 (Simulation time: 0 hr 14 min 48 sec) 
Heartbeat CPU  0 instructions:  427000003 cycles:  370121317 heartbeat IPC: 1.01147 cumulative IPC: 1.02127 (Simulation time: 0 hr 14 min 50 sec) 
Heartbeat CPU  0 instructions:  428000000 cycles:  371120036 heartbeat IPC: 1.00128 cumulative IPC: 1.02121 (Simulation time: 0 hr 14 min 53 sec) 
Heartbeat CPU  0 instructions:  429000000 cycles:  372127903 heartbeat IPC: 0.99219 cumulative IPC: 1.02112 (Simulation time: 0 hr 14 min 55 sec) 
Heartbeat CPU  0 instructions:  430000003 cycles:  373143989 heartbeat IPC: 0.98417 cumulative IPC: 1.02100 (Simulation time: 0 hr 14 min 57 sec) 
Heartbeat CPU  0 instructions:  431000002 cycles:  374147617 heartbeat IPC: 0.99638 cumulative IPC: 1.02093 (Simulation time: 0 hr 14 min 59 sec) 
Heartbeat CPU  0 instructions:  432000000 cycles:  375151999 heartbeat IPC: 0.99564 cumulative IPC: 1.02085 (Simulation time: 0 hr 15 min 1 sec) 
Heartbeat CPU  0 instructions:  433000001 cycles:  376162964 heartbeat IPC: 0.98915 cumulative IPC: 1.02075 (Simulation time: 0 hr 15 min 4 sec) 
Heartbeat CPU  0 instructions:  434000001 cycles:  377181533 heartbeat IPC: 0.98177 cumulative IPC: 1.02063 (Simulation time: 0 hr 15 min 6 sec) 
Heartbeat CPU  0 instructions:  435000002 cycles:  378189837 heartbeat IPC: 0.99177 cumulative IPC: 1.02054 (Simulation time: 0 hr 15 min 8 sec) 
Heartbeat CPU  0 instructions:  436000000 cycles:  379208077 heartbeat IPC: 0.98208 cumulative IPC: 1.02042 (Simulation time: 0 hr 15 min 10 sec) 
Heartbeat CPU  0 instructions:  437000001 cycles:  380196938 heartbeat IPC: 1.01127 cumulative IPC: 1.02039 (Simulation time: 0 hr 15 min 12 sec) 
Heartbeat CPU  0 instructions:  438000002 cycles:  381185820 heartbeat IPC: 1.01124 cumulative IPC: 1.02037 (Simulation time: 0 hr 15 min 15 sec) 
Heartbeat CPU  0 instructions:  439000003 cycles:  382186401 heartbeat IPC: 0.99942 cumulative IPC: 1.02030 (Simulation time: 0 hr 15 min 17 sec) 
Heartbeat CPU  0 instructions:  440000000 cycles:  383195379 heartbeat IPC: 0.99110 cumulative IPC: 1.02022 (Simulation time: 0 hr 15 min 19 sec) 
Heartbeat CPU  0 instructions:  441000000 cycles:  384198489 heartbeat IPC: 0.99690 cumulative IPC: 1.02015 (Simulation time: 0 hr 15 min 21 sec) 
Heartbeat CPU  0 instructions:  442000003 cycles:  385211323 heartbeat IPC: 0.98733 cumulative IPC: 1.02005 (Simulation time: 0 hr 15 min 23 sec) 
Heartbeat CPU  0 instructions:  443000003 cycles:  386232354 heartbeat IPC: 0.97940 cumulative IPC: 1.01992 (Simulation time: 0 hr 15 min 25 sec) 
Heartbeat CPU  0 instructions:  444000000 cycles:  387250595 heartbeat IPC: 0.98208 cumulative IPC: 1.01981 (Simulation time: 0 hr 15 min 28 sec) 
Heartbeat CPU  0 instructions:  445000000 cycles:  388251238 heartbeat IPC: 0.99936 cumulative IPC: 1.01975 (Simulation time: 0 hr 15 min 30 sec) 
Heartbeat CPU  0 instructions:  446000001 cycles:  389259355 heartbeat IPC: 0.99195 cumulative IPC: 1.01967 (Simulation time: 0 hr 15 min 32 sec) 
Heartbeat CPU  0 instructions:  447000000 cycles:  390262685 heartbeat IPC: 0.99668 cumulative IPC: 1.01960 (Simulation time: 0 hr 15 min 34 sec) 
Heartbeat CPU  0 instructions:  448000000 cycles:  391281188 heartbeat IPC: 0.98183 cumulative IPC: 1.01949 (Simulation time: 0 hr 15 min 36 sec) 
Heartbeat CPU  0 instructions:  449000002 cycles:  392285684 heartbeat IPC: 0.99553 cumulative IPC: 1.01941 (Simulation time: 0 hr 15 min 39 sec) 
Heartbeat CPU  0 instructions:  450000000 cycles:  393293920 heartbeat IPC: 0.99183 cumulative IPC: 1.01933 (Simulation time: 0 hr 15 min 41 sec) 
Heartbeat CPU  0 instructions:  451000003 cycles:  394307118 heartbeat IPC: 0.98698 cumulative IPC: 1.01924 (Simulation time: 0 hr 15 min 43 sec) 
Heartbeat CPU  0 instructions:  452000000 cycles:  395316059 heartbeat IPC: 0.99114 cumulative IPC: 1.01916 (Simulation time: 0 hr 15 min 45 sec) 
Heartbeat CPU  0 instructions:  453000002 cycles:  396339734 heartbeat IPC: 0.97687 cumulative IPC: 1.01903 (Simulation time: 0 hr 15 min 47 sec) 
Heartbeat CPU  0 instructions:  454000003 cycles:  397354599 heartbeat IPC: 0.98535 cumulative IPC: 1.01893 (Simulation time: 0 hr 15 min 50 sec) 
Heartbeat CPU  0 instructions:  455000001 cycles:  398363799 heartbeat IPC: 0.99088 cumulative IPC: 1.01885 (Simulation time: 0 hr 15 min 52 sec) 
Heartbeat CPU  0 instructions:  456000000 cycles:  399382265 heartbeat IPC: 0.98187 cumulative IPC: 1.01874 (Simulation time: 0 hr 15 min 54 sec) 
Heartbeat CPU  0 instructions:  457000002 cycles:  400367082 heartbeat IPC: 1.01542 cumulative IPC: 1.01873 (Simulation time: 0 hr 15 min 56 sec) 
Heartbeat CPU  0 instructions:  458000002 cycles:  401231789 heartbeat IPC: 1.15646 cumulative IPC: 1.01907 (Simulation time: 0 hr 15 min 58 sec) 
Heartbeat CPU  0 instructions:  459000002 cycles:  402098419 heartbeat IPC: 1.15390 cumulative IPC: 1.01941 (Simulation time: 0 hr 16 min 0 sec) 
Heartbeat CPU  0 instructions:  460000000 cycles:  402957149 heartbeat IPC: 1.16451 cumulative IPC: 1.01976 (Simulation time: 0 hr 16 min 2 sec) 
Heartbeat CPU  0 instructions:  461000002 cycles:  403822709 heartbeat IPC: 1.15532 cumulative IPC: 1.02009 (Simulation time: 0 hr 16 min 4 sec) 
Heartbeat CPU  0 instructions:  462000002 cycles:  404680382 heartbeat IPC: 1.16595 cumulative IPC: 1.02044 (Simulation time: 0 hr 16 min 6 sec) 
Heartbeat CPU  0 instructions:  463000002 cycles:  405545128 heartbeat IPC: 1.15641 cumulative IPC: 1.02077 (Simulation time: 0 hr 16 min 8 sec) 
Heartbeat CPU  0 instructions:  464000000 cycles:  406403864 heartbeat IPC: 1.16450 cumulative IPC: 1.02112 (Simulation time: 0 hr 16 min 11 sec) 
Heartbeat CPU  0 instructions:  465000000 cycles:  407465984 heartbeat IPC: 0.94151 cumulative IPC: 1.02088 (Simulation time: 0 hr 16 min 13 sec) 
Heartbeat CPU  0 instructions:  466000001 cycles:  408558460 heartbeat IPC: 0.91535 cumulative IPC: 1.02056 (Simulation time: 0 hr 16 min 15 sec) 
Heartbeat CPU  0 instructions:  467000000 cycles:  409576963 heartbeat IPC: 0.98183 cumulative IPC: 1.02045 (Simulation time: 0 hr 16 min 17 sec) 
Heartbeat CPU  0 instructions:  468000000 cycles:  410648506 heartbeat IPC: 0.93323 cumulative IPC: 1.02019 (Simulation time: 0 hr 16 min 19 sec) 
Heartbeat CPU  0 instructions:  469000003 cycles:  411735455 heartbeat IPC: 0.92001 cumulative IPC: 1.01989 (Simulation time: 0 hr 16 min 21 sec) 
Heartbeat CPU  0 instructions:  470000001 cycles:  412799505 heartbeat IPC: 0.93980 cumulative IPC: 1.01966 (Simulation time: 0 hr 16 min 23 sec) 
Heartbeat CPU  0 instructions:  471000003 cycles:  413892050 heartbeat IPC: 0.91530 cumulative IPC: 1.01934 (Simulation time: 0 hr 16 min 25 sec) 
Heartbeat CPU  0 instructions:  472000000 cycles:  415098970 heartbeat IPC: 0.82855 cumulative IPC: 1.01871 (Simulation time: 0 hr 16 min 27 sec) 
Heartbeat CPU  0 instructions:  473000000 cycles:  416270255 heartbeat IPC: 0.85376 cumulative IPC: 1.01819 (Simulation time: 0 hr 16 min 29 sec) 
Heartbeat CPU  0 instructions:  474000000 cycles:  417359677 heartbeat IPC: 0.91792 cumulative IPC: 1.01789 (Simulation time: 0 hr 16 min 31 sec) 
Heartbeat CPU  0 instructions:  475000002 cycles:  418498482 heartbeat IPC: 0.87812 cumulative IPC: 1.01746 (Simulation time: 0 hr 16 min 33 sec) 
Heartbeat CPU  0 instructions:  476000000 cycles:  419642011 heartbeat IPC: 0.87448 cumulative IPC: 1.01701 (Simulation time: 0 hr 16 min 35 sec) 
Heartbeat CPU  0 instructions:  477000002 cycles:  420794906 heartbeat IPC: 0.86738 cumulative IPC: 1.01655 (Simulation time: 0 hr 16 min 38 sec) 
Heartbeat CPU  0 instructions:  478000002 cycles:  421893727 heartbeat IPC: 0.91007 cumulative IPC: 1.01623 (Simulation time: 0 hr 16 min 40 sec) 
Heartbeat CPU  0 instructions:  479000002 cycles:  423126184 heartbeat IPC: 0.81139 cumulative IPC: 1.01556 (Simulation time: 0 hr 16 min 42 sec) 
Heartbeat CPU  0 instructions:  480000000 cycles:  424667307 heartbeat IPC: 0.64888 cumulative IPC: 1.01405 (Simulation time: 0 hr 16 min 44 sec) 
Heartbeat CPU  0 instructions:  481000002 cycles:  426113274 heartbeat IPC: 0.69158 cumulative IPC: 1.01281 (Simulation time: 0 hr 16 min 47 sec) 
Heartbeat CPU  0 instructions:  482000003 cycles:  427492318 heartbeat IPC: 0.72514 cumulative IPC: 1.01176 (Simulation time: 0 hr 16 min 50 sec) 
Heartbeat CPU  0 instructions:  483000000 cycles:  428920154 heartbeat IPC: 0.70036 cumulative IPC: 1.01059 (Simulation time: 0 hr 16 min 52 sec) 
Heartbeat CPU  0 instructions:  484000000 cycles:  430357486 heartbeat IPC: 0.69573 cumulative IPC: 1.00940 (Simulation time: 0 hr 16 min 55 sec) 
Heartbeat CPU  0 instructions:  485000003 cycles:  431739967 heartbeat IPC: 0.72334 cumulative IPC: 1.00836 (Simulation time: 0 hr 16 min 57 sec) 
Heartbeat CPU  0 instructions:  486000003 cycles:  433099205 heartbeat IPC: 0.73571 cumulative IPC: 1.00739 (Simulation time: 0 hr 17 min 0 sec) 
Heartbeat CPU  0 instructions:  487000000 cycles:  434529349 heartbeat IPC: 0.69923 cumulative IPC: 1.00625 (Simulation time: 0 hr 17 min 2 sec) 
Heartbeat CPU  0 instructions:  488000000 cycles:  435922933 heartbeat IPC: 0.71757 cumulative IPC: 1.00521 (Simulation time: 0 hr 17 min 5 sec) 
Heartbeat CPU  0 instructions:  489000000 cycles:  437352814 heartbeat IPC: 0.69936 cumulative IPC: 1.00408 (Simulation time: 0 hr 17 min 8 sec) 
Heartbeat CPU  0 instructions:  490000000 cycles:  438791063 heartbeat IPC: 0.69529 cumulative IPC: 1.00294 (Simulation time: 0 hr 17 min 10 sec) 
Heartbeat CPU  0 instructions:  491000001 cycles:  440216577 heartbeat IPC: 0.70150 cumulative IPC: 1.00183 (Simulation time: 0 hr 17 min 13 sec) 
Heartbeat CPU  0 instructions:  492000000 cycles:  441642074 heartbeat IPC: 0.70151 cumulative IPC: 1.00074 (Simulation time: 0 hr 17 min 16 sec) 
Heartbeat CPU  0 instructions:  493000001 cycles:  443054205 heartbeat IPC: 0.70815 cumulative IPC: 0.99969 (Simulation time: 0 hr 17 min 19 sec) 
Heartbeat CPU  0 instructions:  494000000 cycles:  444458593 heartbeat IPC: 0.71205 cumulative IPC: 0.99867 (Simulation time: 0 hr 17 min 22 sec) 
Heartbeat CPU  0 instructions:  495000001 cycles:  445873307 heartbeat IPC: 0.70686 cumulative IPC: 0.99762 (Simulation time: 0 hr 17 min 24 sec) 
Heartbeat CPU  0 instructions:  496000000 cycles:  447295329 heartbeat IPC: 0.70322 cumulative IPC: 0.99657 (Simulation time: 0 hr 17 min 27 sec) 
Heartbeat CPU  0 instructions:  497000001 cycles:  448686445 heartbeat IPC: 0.71885 cumulative IPC: 0.99560 (Simulation time: 0 hr 17 min 30 sec) 
Heartbeat CPU  0 instructions:  498000001 cycles:  450092845 heartbeat IPC: 0.71104 cumulative IPC: 0.99460 (Simulation time: 0 hr 17 min 32 sec) 
Heartbeat CPU  0 instructions:  499000001 cycles:  451486984 heartbeat IPC: 0.71729 cumulative IPC: 0.99364 (Simulation time: 0 hr 17 min 35 sec) 
Heartbeat CPU  0 instructions:  500000000 cycles:  452882058 heartbeat IPC: 0.71681 cumulative IPC: 0.99268 (Simulation time: 0 hr 17 min 37 sec) 
Heartbeat CPU  0 instructions:  501000002 cycles:  454276339 heartbeat IPC: 0.71722 cumulative IPC: 0.99173 (Simulation time: 0 hr 17 min 40 sec) 
Heartbeat CPU  0 instructions:  502000003 cycles:  455675558 heartbeat IPC: 0.71469 cumulative IPC: 0.99077 (Simulation time: 0 hr 17 min 42 sec) 
Heartbeat CPU  0 instructions:  503000000 cycles:  457097771 heartbeat IPC: 0.70313 cumulative IPC: 0.98977 (Simulation time: 0 hr 17 min 45 sec) 
Heartbeat CPU  0 instructions:  504000000 cycles:  458513352 heartbeat IPC: 0.70642 cumulative IPC: 0.98879 (Simulation time: 0 hr 17 min 48 sec) 
Heartbeat CPU  0 instructions:  505000001 cycles:  459922283 heartbeat IPC: 0.70976 cumulative IPC: 0.98783 (Simulation time: 0 hr 17 min 50 sec) 
Heartbeat CPU  0 instructions:  506000000 cycles:  461329201 heartbeat IPC: 0.71077 cumulative IPC: 0.98688 (Simulation time: 0 hr 17 min 53 sec) 
Heartbeat CPU  0 instructions:  507000003 cycles:  462726018 heartbeat IPC: 0.71592 cumulative IPC: 0.98596 (Simulation time: 0 hr 17 min 55 sec) 
Heartbeat CPU  0 instructions:  508000000 cycles:  464139849 heartbeat IPC: 0.70730 cumulative IPC: 0.98501 (Simulation time: 0 hr 17 min 58 sec) 
Heartbeat CPU  0 instructions:  509000003 cycles:  465569993 heartbeat IPC: 0.69923 cumulative IPC: 0.98403 (Simulation time: 0 hr 18 min 0 sec) 
Heartbeat CPU  0 instructions:  510000000 cycles:  466982467 heartbeat IPC: 0.70798 cumulative IPC: 0.98310 (Simulation time: 0 hr 18 min 3 sec) 
Heartbeat CPU  0 instructions:  511000002 cycles:  468150018 heartbeat IPC: 0.85650 cumulative IPC: 0.98274 (Simulation time: 0 hr 18 min 5 sec) 
Heartbeat CPU  0 instructions:  512000000 cycles:  469106561 heartbeat IPC: 1.04543 cumulative IPC: 0.98289 (Simulation time: 0 hr 18 min 7 sec) 
Heartbeat CPU  0 instructions:  513000000 cycles:  469965160 heartbeat IPC: 1.16469 cumulative IPC: 0.98326 (Simulation time: 0 hr 18 min 10 sec) 
Heartbeat CPU  0 instructions:  514000003 cycles:  470838282 heartbeat IPC: 1.14532 cumulative IPC: 0.98359 (Simulation time: 0 hr 18 min 12 sec) 
Heartbeat CPU  0 instructions:  515000002 cycles:  471699933 heartbeat IPC: 1.16056 cumulative IPC: 0.98395 (Simulation time: 0 hr 18 min 14 sec) 
Heartbeat CPU  0 instructions:  516000000 cycles:  472561350 heartbeat IPC: 1.16088 cumulative IPC: 0.98431 (Simulation time: 0 hr 18 min 16 sec) 
Heartbeat CPU  0 instructions:  517000001 cycles:  473439146 heartbeat IPC: 1.13922 cumulative IPC: 0.98464 (Simulation time: 0 hr 18 min 18 sec) 
Heartbeat CPU  0 instructions:  518000003 cycles:  474284005 heartbeat IPC: 1.18363 cumulative IPC: 0.98503 (Simulation time: 0 hr 18 min 20 sec) 
Heartbeat CPU  0 instructions:  519000001 cycles:  475143599 heartbeat IPC: 1.16334 cumulative IPC: 0.98539 (Simulation time: 0 hr 18 min 22 sec) 
Heartbeat CPU  0 instructions:  520000000 cycles:  476008577 heartbeat IPC: 1.15610 cumulative IPC: 0.98574 (Simulation time: 0 hr 18 min 24 sec) 
Heartbeat CPU  0 instructions:  521000002 cycles:  476874804 heartbeat IPC: 1.15443 cumulative IPC: 0.98608 (Simulation time: 0 hr 18 min 27 sec) 
Heartbeat CPU  0 instructions:  522000002 cycles:  477760298 heartbeat IPC: 1.12931 cumulative IPC: 0.98638 (Simulation time: 0 hr 18 min 29 sec) 
Heartbeat CPU  0 instructions:  523000000 cycles:  478622635 heartbeat IPC: 1.15964 cumulative IPC: 0.98673 (Simulation time: 0 hr 18 min 31 sec) 
Heartbeat CPU  0 instructions:  524000000 cycles:  479473701 heartbeat IPC: 1.17500 cumulative IPC: 0.98710 (Simulation time: 0 hr 18 min 33 sec) 
Heartbeat CPU  0 instructions:  525000003 cycles:  480338290 heartbeat IPC: 1.15662 cumulative IPC: 0.98744 (Simulation time: 0 hr 18 min 35 sec) 
Heartbeat CPU  0 instructions:  526000001 cycles:  481198144 heartbeat IPC: 1.16299 cumulative IPC: 0.98779 (Simulation time: 0 hr 18 min 37 sec) 
Heartbeat CPU  0 instructions:  527000003 cycles:  482071617 heartbeat IPC: 1.14486 cumulative IPC: 0.98811 (Simulation time: 0 hr 18 min 39 sec) 
Heartbeat CPU  0 instructions:  528000000 cycles:  482927210 heartbeat IPC: 1.16878 cumulative IPC: 0.98846 (Simulation time: 0 hr 18 min 41 sec) 
[...]
AIAAAAAAA22224A4444AAAAAAAAAAAAAAAAAAAAAAAAAA444444AAAAAA2222444
AIAAAAAAAA2222A4444AAAAAAAAAAAAAAAAAAAAAAAAAA444444AAAAAA2222444
AIAAAAAAAA2222A4444AAAAAAAAAAAAAAAAAAAAAAAAAA244444AAAAAA2222444
AIAAAAAAAA2222A4444AAAAAAAAAAAAAAAAAAAAAAAAAA244444AAAAAAA222244
AIAAAAAAAAA222A4444AAAAAAAAAAAAAAAAAAAAAAAAAA244444AAAAAAA222244
AIAAAAAAAAA222A4444AAAAAAAAAAAAAAAAAAAAAAAAAA224444AAAAAAA222244
AIAAAAAAAAA222A4444AAAAAAAAAAAAAAAAAAAAAAAAAA224444AAAAAAAA22224
AIAAAAAAAAAA22A2444AAAAAAAAAAAAAAAAAAAAAAAAAA224444AAAAAAAA22224
AIAAAAAAAAAA22A2444AAAAAAAAAAAAAAAAAAAAAAAAAA222444AAAAAAAA22224
AIAAAAAAAAAA22A2444AAAAAAAAAAAAAAAAAAAAAAAAAA222444AAAAAAAAA2222
AIAAAAAAAAAAA2A2244AAAAAAAAAAAAAAAAAAAAAAAAAA222444AAAAAAAAA2222
AIAAAAAAAAAAA2A2244AAAAAAAAAAAAAAAAAAAAAAAAAA222244AAAAAAAAA2222
AIAAAAAAAAAAA2A2244AAAAAAAAAAAAAAAAAAAAAAAAAA222244AAAAAAAAAA222
AIAAAAAAAAAAAAA2224AAAAAAAAAAAAAAAAAAAAAAAAAA222244AAAAAAAAAA222
AIAAAAAAAAAAAAA2224AAAAAAAAAAAAAAAAAAAAAAAAAAA22224AAAAAAAAAA222
AIAAAAAAAAAAAAA2224AAAAAAAAAAAAAAAAAAAAAAAAAAA22224AAAAAAAAAAA22
AIAAAAAAAAAAAAA2222AAAAAAAAAAAAAAAAAAAAAAAAAAA22224AAAAAAAAAAA22
AIAAAAAAAAAAAAA2222AAAAAAAAAAAAAAAAAAAAAAAAAAAA2222AAAAAAAAAAA22
AIAAAAAAAAAAAAA2222AAAAAAAAAAAAAAAAAAAAAAAAAAAA2222AAAAAAAAAAAA2
AIAAAAAAAAAAAAAA222AAAAAAAAAAAAAAAAAAAAAAAAAAAA2222AAAAAAAAAAAA2
AIAAAAAAAAAAAAAA222AAAAAAAAAAAAAAAAAAAAAAAAAAAAA222AAAAAAAAAAAA2
A2AAAAAAAAAAAAAA222AAAAAAAAAAAAAAAAAAAAAAAAAAAAA222AAAAAAAAAAAA2
A2AAAAAAAAAAAAAA222AAAAAAAAAAAAAAAAAAAAAAAAAAAAA222AAAAAAAAAAAAA
A2AAAAAAAAAAAAAAA22AAAAAAAAAAAAAAAAAAAAAAAAAAAAA222AAAAAAAAAAAAA
A2AAAAAAAAAAAAAAA22AAAAAAAAAAAAAAAAAAAAAAAAAAAAAA22AAAAAAAAAAAAA
AAAAAAAAAAAAAAAAA22AAAAAAAAAAAAAAAAAAAAAAAAAAAAAA22AAAAAAAAAAAAA
AAAAAAAAAAAAAAAAAA2AAAAAAAAAAAAAAAAAAAAAAAAAAAAAA22AAAAAAAAAAAAA
AAAAAAAAAAAAAAAAAA2AAAAAAAAAAAAAAAAAAAAAAAAAAAAAAA2AAAAAAAAAAAAA
AAAAAAAAAAAAAAAAAAAAAAAAAAAAAAAAAAAAAAAAAAAAAAAAAA2AAAAAAAAAAAAA
AAAAAAAAAAAAAAAAAAAAAAAAAAAAAAAAAAAAAAAAAAAAAAAAAAAAAAAAAAAAAAAA
AAAAAAAAAAAAAAAAAAAAAAAAAAAAAAAIAAAAAAAAAAAAAAAAAAAAAAAAAAAAAAAA
AAAAAAAAAAAAAAAAAAAAAAAAAAAAAAAIIAAAAAAAAAAAAAAAAAAAAAAAAAAAAAAA
AAAAAAAAAAAAAAAAAAAAAAAAAAAAAAAIIIAAAAAAAAAAAAAAAAAAAAAAAAAAAAAA
AAAAAAAAAAAAAAAAAAAAAAAAAAAAAAAIIIIAAAAAAAAAAAAAAAAAAAAAAAAAAAAA
AAAAAAAAAAAAAAAAAAAAAAAAAAAAAAAIIIIIAAAAAAAAAAAAAAAAAAAAAAAAAAAA
AAAAAAAAAAAAAAAAAAAAAAAIAAAAAAAIIIIIAAAAAAAAAAAAAAAAAAAAAAAAAAAA
AAAAAAAAAAAAAAAAAAAAAAAIIAAAAAAIIIIIAAAAAAAAAAAAAAAAAAAAAAAAAAAA
AAAAAAAAAAAAAAAAAAAAAAAIIIAAAAAIIIIIAAAAAAAAAAAAAAAAAAAAAAAAAAAA
AAAAAAAAAAAAAAAAAAAAAAAIIIIAAAAIIIIIAAAAAAAAAAAAAAAAAAAAAAAAAAAA
AAAAAAAAAAAAAAAAAAAAAAAIIIIIAAAIIIIIAAAAAAAAAAAAAAAAAAAAAAAAAAAA
AAAAAAAAAAAAAAAAAAAAAAAIIIIIAAAIIIIIAAIAAAAAAAAAAAAAAAAAAAAAAAAA
AAAAAAAAAAAAAAAAAAAAAAAIIIIIAAAIIIIIAAIAAAAAAAAAAAAAAAAAAAAAAIAA
AAAAAAAAAAAAAAAAAAAAAAAIIIIIAAAIIIIIAAIAAAAAAAAAAAAAAAAAAAAAAIIA
AAAAAAAAAAAAAAAAAAAAAAAIIIIIAAAIIIIIAAIAAAAAAAAAAAAAAAAAAAAAAIII
AIAAAAAAAAAAAAAAAAAAAAAIIIIIAAAIIIIIAAIAAAAAAAAAAAAAAAAAAAAAAIII
AIIAAAAAAAAAAAAAAAAAAAAIIIIIAAAIIIIIAAIAAAAAAAAAAAAAAAAAAAAAAIII
AIIAAIAAAAAAAAAAAAAAAAAIIIIIAAAIIIIIAAIAAAAAAAAAAAAAAAAAAAAAAIII
AIIAAIIAAAAAAAAAAAAAAAAIIIIIAAAIIIIIAAIAAAAAAAAAAAAAAAAAAAAAAIII
AIIAAIIAAAAAAAAAAAAAAAAIIIIIAAAIIIIIAAIAAIAAAAAAAAAAAAAAAAAAAIII
AIIAAIIAAAAAAAAAAAAAAAAIIIIIAAAIIIIIAAIAAIIAAAAAAAAAAAAAAAAAAIII
AIIAAIIAAAAAAAAAAAAAAAAIIIIIAAAIIIIIAAIAAIIIAAAAAAAAAAAAAAAAAIII
AIIAAIIAAAAAAAAAAAAAAAAIIIIIAAAIIIIIAAIAAIIIIAAAAAAAAAAAAAAAAIII
AIIAAIIAAAAAAAAAAAAAAAAIIIIIAAAIIIIIAAIAAIIIIIAAAAAAAAAAAAAAAIII
AIIAAIIAAAAAAAAAAAAAAAAIIIIIAAAIIIIIAAIAAIIIIIIAAAAAAAAAAAAAAIII
AIIAAIIAAAAAAAAAAAAAAAAIIIIIAAAIIIIIAAIAAIIIIIIIAAAAAAAAAAAAAIII
AIIAAIIAAAAAAAAAAAAAAAAIIIIIAAAIIIIIAAIAAIIIIIIIIAAAAAAAAAAAAIII
AIIAAIIAAAAAAAAAAAAAAAAIIIIIAAAIIIIIAAIAAIIIIIIIIIAAAAAAAAAAAIII
AIIAAIIAAAAAAAAAAAAAAAAIIIIIAAAIIIIIAAIAAIIIIIIIIIIAAAAAAAAAAIII
AIIAAIIAAAAAAAAAAAAAAIAIIIIIAAAIIIIIAAIAAIIIIIIIIIIAAAAAAAAAAIII
AIIAAIIAAAAAAAAAAAAAAIAIIIIIAAAIIIIIAAIAAIIIIIIIIIIAAAIAAAAAAIII
AIIAAIIAAAAAAAAAAAAAAIAIIIIIAAAIIIIIAAIAAIIIIIIIIIIIAAIAAAAAAIII
AIIAAIIAAAAAAAAAAAAAIIAIIIIIAAAIIIIIAAIAAIIIIIIIIIIIAAIAAAAAAIII
AIIAAIIAAAAAAAAAAAAAIIAIIIIIAAAIIIIIAAIAAIIIIIIIIIIIIAIAAAAAAIII
AIIAAIIAAAAAAAAAAAAAIIAIIIIIAAAIIIIIAAIAAIIIIIIIIIIIIIIAAAAAAIII
AIIAAIIIAAAAAAAAAAAAIIAIIIIIAAAIIIIIAAIAAIIIIIIIIIIIIIIAAAAAAIII
AIIAAIIIIAAAAAAAAAAAIIAIIIIIAAAIIIIIAAIAAIIIIIIIIIIIIIIAAAAAAIII
AIIAAIIIIAIAAAAAAAAAIIAIIIIIAAAIIIIIAAIAAIIIIIIIIIIIIIIAAAAAAIII
AIIAAIIIIAIIAAAAAAAAIIAIIIIIAAAIIIIIAAIAAIIIIIIIIIIIIIIAAAAAAIII
AIIAAIIIIAIIIAAAAAAAIIAIIIIIAAAIIIIIAAIAAIIIIIIIIIIIIIIAAAAAAIII
AIIAAIIIIAIIIIAAAAAAIIAIIIIIAAAIIIIIAAIAAIIIIIIIIIIIIIIAAAAAAIII
AIIAAIIIIAIIIIIAAAAAIIAIIIIIAAAIIIIIAAIAAIIIIIIIIIIIIIIAAAAAAIII
AIIAAIIIIAIIIIIIAAAAIIAIIIIIAAAIIIIIAAIAAIIIIIIIIIIIIIIAAAAAAIII
AIIAAIIIIAIIIIIIIAAAIIAIIIIIAAAIIIIIAAIAAIIIIIIIIIIIIIIAAAAAAIII
AIIAAIIIIAIIIIIIIAIAIIAIIIIIAAAIIIIIAAIAAIIIIIIIIIIIIIIAAAAAAIII
AIIAAIIIIAIIIIIIIIIAIIAIIIIIAAAIIIIIAAIAAIIIIIIIIIIIIIIAAAAAAIII
AIIAAIIIIAIIIIIIIIIAIIAIIIIIAAAIIIIAAA2AA244444444IIIIIAAAAAAIII
AIIAAIIIIAIIIIIIIIIAIIAIIIIIAAAIIIIAAA2AA2244444444IIIIAAAAAAIII
AIIAAIIIIAIIIIIIIIIAIIAIIIIIAAAIIIIAAA2AA22244444444IIIAAAAAAIII
AIIAAIIIIAIIIIIIIIIAIIAIIIIIAAAIIIIAAAAAA222244444444IIAAAAAAIII
AIIAAIIIIAIIIIIIIIIAIIAIIIIIAAAIIIIAAAAAA2222244444444IAAAAAAIII
AIIAAIIIIAIIIIIIIIIAIIAIIIIIAAAIIIIAAAAAA22222244444444AAAAAAIII
AIIAAIIIIAIIIIIIIIIAIIAIIIIIAAAIIIIAAAAAAA2222224444444AAAAAAIII
AIIAAIIIIAIIIIIIIIIAIIAIIIIIAAAIIIIAAAAAAAA222222444444AAAAAAIII
AIIAAIIIIAIIIIIIIIIAIIAIIIIIAAAIIIIAAAAAAAAA22222244444AAAAAAIII
AIIAAIIIIAIIIIIIIIIAIIAIIIIIAAAIIIIAAAAAAAAAA2222224444AAAAAAIII
AIIAAIIIIAIIIIIIIIIAIIAIIIIIAAAIIIIAAAAAAAAAAA222222444AAAAAAIII
AIIAAIIIIAIIIIIIIIIAIIAIIIIIAAAIIIIAAAAAAAAAAAA22222244AAAAAAIII
AIIAAIIIIAIIIIIIIIIAIIAIIIIIAAAIIIIAAAAAAAAAAAAA2222224AAAAAA4II
AIIAAIIIIAIIIIIIIIIAIIAIIIIIAAAIIIIAAAAAAAAAAAAAA222222AAAAAA44I
AIIAAIIIIAIIIIIIIIIAIIAIIIIIAAAIIIIAAAAAAAAAAAAAAA22222AAAAAA444
AIIAAIIIIAIIIIIIIIIAIIAIIIIIAAAIIIIAAAAAAAAAAAAAAAA2222AAAAAA444
AIIAA2222A44444444IAIIAIIIIIAAAIIIIAAAAAAAAAAAAAAAA2222AAAAAA444
AIIAA2222A44444444IAIIAIIIIIAAAIIIIAAAAAAAAAAAAAAAAA222AAAAAA444
AIIAA2222A244444444AIIAIIIIIAAAIIIIAAAAAAAAAAAAAAAAA222AAAAAA444
AIIAA2222A244444444A22A222IIAAAIIIIAAAAAAAAAAAAAAAAA222AAAAAA444
AIIAA2222A244444444AA2A22244AAA4444AAAAAAAAAAAAAAAAA222AAAAAA444
AIIAA2222A244444444AA2A22244AAA4444AAAAAAAAAAAAAAAAAA22AAAAAA444
AIIAAA222A244444444AA2A22244AAA4444AAAAAAAAAAAAAAAAAA22AAAAAA444
AIIAAA222A244444444AAAA22244AAA4444AAAAAAAAAAAAAAAAAA22AAAAAA444
AIIAAA222A244444444AAAA22244AAA4444AAAAAAAAAAAAAAAAAAA2AAAAAA444
AIIAAAA22A244444444AAAA22244AAA4444AAAAAAAAAAAAAAAAAAA2AAAAAA444
AIIAAAA22A244444444AAAA22224AAA4444AAAAAAAAAAAAAAAAAAA2AAAAAA444
AIIAAAA22A244444444AAAA22224AAA4444AAAAAAAAAAAAAAAAAAAAAAAAAA444
AIIAAAAA2A224444444AAAA22224AAA4444AAAAAAAAAAAAAAAAAAAAAAAAAA444
AIIAAAAA2A224444444AAAAA2222AAA4444AAAAAAAAAAAAAAAAAAAAAAAAAA444
AIIAAAAAAA222444444AAAAA2222AAA4444AAAAAAAAAAAAAAAAAAAAAAAAAA444
AIIAAAAAAA222444444AAAAAA222AAA4444AAAAAAAAAAAAAAAAAAAAAAAAAA444
AIIAAAAAAA222244444AAAAAA222AAA4444AAAAAAAAAAAAAAAAAAAAAAAAAA444
AIIAAAAAAA222244444AAAAAAA22AAA4444AAAAAAAAAAAAAAAAAAAAAAAAAA444
AIIAAAAAAA222244444AAAAAAA22AAA4444AAAAAAAAAAAAAAAAAAAAAAAAAA244
AIIAAAAAAAA22224444AAAAAAA22AAA4444AAAAAAAAAAAAAAAAAAAAAAAAAA244
AIIAAAAAAAA22224444AAAAAAAA2AAA4444AAAAAAAAAAAAAAAAAAAAAAAAAA244
AIIAAAAAAAA22224444AAAAAAAA2AAA4444AAAAAAAAAAAAAAAAAAAAAAAAAA224
AIIAAAAAAAAA2222444AAAAAAAA2AAA4444AAAAAAAAAAAAAAAAAAAAAAAAAA224
AIIAAAAAAAAA2222444AAAAAAAAAAAA2444AAAAAAAAAAAAAAAAAAAAAAAAAA224
AIIAAAAAAAAA2222444AAAAAAAAAAAA2444AAAAAAAAAAAAAAAAAAAAAAAAAA222
AIIAAAAAAAAAA222244AAAAAAAAAAAA2444AAAAAAAAAAAAAAAAAAAAAAAAAA222
AIIAAAAAAAAAA222244AAAAAAAAAAAA2244AAAAAAAAAAAAAAAAAAAAAAAAAA222
AIIAAAAAAAAAAA22224AAAAAAAAAAAA2244AAAAAAAAAAAAAAAAAAAAAAAAAA222
AIIAAAAAAAAAAA22224AAAAAAAAAAAA2224AAAAAAAAAAAAAAAAAAAAAAAAAA222
AIIAAAAAAAAAAA22224AAAAAAAAAAAA2224AAAAAAAAAAAAAAAAAAAAAAAAAAA22
AIIAAAAAAAAAAAA2222AAAAAAAAAAAA2224AAAAAAAAAAAAAAAAAAAAAAAAAAA22
AIIAAAAAAAAAAAA2222AAAAAAAAAAAA2222AAAAAAAAAAAAAAAAAAAAAAAAAAA22
AIIAAAAAAAAAAAA2222AAAAAAAAAAAA2222AAAAAAAAAAAAAAAAAAAAAAAAAAAA2
AIIAAAAAAAAAAAAA222AAAAAAAAAAAA2222AAAAAAAAAAAAAAAAAAAAAAAAAAAA2
AIIAAAAAAAAAAAAA222AAAAAAAAAAAAA222AAAAAAAAAAAAAAAAAAAAAAAAAAAA2
AIIAAAAAAAAAAAAA222AAAAAAAAAAAAA222AAAAAAAAAAAAAAAAAAAAAAAAAAAAA
AIIAAAAAAAAAAAAAA22AAAAAAAAAAAAA222AAAAAAAAAAAAAAAAAAAAAAAAAAAAA
AIIAAAAAAAAAAAAAA22AAAAAAAAAAAAAA22AAAAAAAAAAAAAAAAAAAAAAAAAAAAA
AIIAAAAAAAAAAAAAAA2AAAAAAAAAAAAAA22AAAAAAAAAAAAAAAAAAAAAAAAAAAAA
AIIAAAAAAAAAAAAAAA2AAAAAAAAAAAAAAA2AAAAAAAAAAAAAAAAAAAAAAAAAAAAA
AIIAAAAAAAAAAAAAAAAAAAAAAAAAAAAAAA2AAAAAAAAAAAAAAAAAAAAAAAAAAAAA
AIIAAAAAAAAAAAAAAAAAAAAAAAAAAAAAAAAAAAAAAAAAAAAAAAAAAAAAAAAAAAAA
AIIAAAAAAAAAAAAAAAAAAAAAAAAAAAAAAAAAAAAAAAAAAAAAIAAAAAAAAAAAAAAA
AIIAAAAAAAAAAAAAAAAAAAAAAAAAAAAAAAAAAAAAAAAAAAAAIIAAAAAAAAAAAAAA
AIIAAAAAAAAAAAAAAAAAAAAAAAAAAAAAAAAAAAAAAAAAAAAAIIIAAAAAAAAAAAAA
AIIAAAAAAAAAAAAAAAAAAAAAAAAAAAAAAAAAAAAAAAAAAAIAIIIAAAAAAAAAAAAA
AIIAAAAAAAAAAAAAAAAAAAAAAAAAAAAAAAAAAAAAAAIAAAIAIIIAAAAAAAAAAAAA
AIIAAAAAAAAAAAAAAAAAAAAAAAAAAAAAAAAAAAAAAAIIAAIAIIIAAAAAAAAAAAAA
AIIAAAAAAAAAAAAAAAAAAAAAAAAAAAAAAAAAAAAAAAIIIAIAIIIAAAAAAAAAAAAA
AIIAAAAAAAAAAAAAAAAAAAAAAAAAAAAAAAAAAAAAAAIIIIIAIIIAAAAAAAAAAAAA
AIIAAAAAAAAAAAAAAAAAAAAAAAAAAAAAAAAAAAAAAAIIIIIAIIIAIAAAAAAAAAAA
AIIAAAAAAAAAAAAAAAAAAAAAAAAAAAAAAAAAAAAAAAIIIIIAIIIAIIAAAAAAAAAA
AIIAAAAAAAAAAAAAAAAAAAAAAAAAAAAAAAAAAAAAAAIIIIIAIIIAIIIAAAAAAAAA
AIIAAAAAAAAAAAAAAAAAAAAAAAAAAAAAAAAAAAAAAAIIIIIAIIIAIIIIAAAAAAAA
AIIAAAAAIAAAAAAAAAAAAAAAAAAAAAAAAAAAAAAAAAIIIIIAIIIAIIIIAAAAAAAA
AIIAAAAAIIAAAAAAAAAAAAAAAAAAAAAAAAAAAAAAAAIIIIIAIIIAIIIIAAAAAAAA
AIIAAAAAIIIAAAAAAAAAAAAAAAAAAAAAAAAAAAAAAAIIIIIAIIIAIIIIAAAAAAAA
AIIAAAAAIIIIAAAAAAAAAAAAAAAAAAAAAAAAAAAAAAIIIIIAIIIAIIIIAAAAAAAA
AIIAAAAAIIIIIAAAAAAAAAAAAAAAAAAAAAAAAAAAAAIIIIIAIIIAIIIIAAAAAAAA
AIIAAAAAIIIIIIAAAAAAAAAAAAAAAAAAAAAAAAAAAAIIIIIAIIIAIIIIAAAAAAAA
AIIAIAAAIIIIIIAAAAAAAAAAAAAAAAAAAAAAAAAAAAIIIIIAIIIAIIIIAAAAAAAA
AIIAIIAAIIIIIIAAAAAAAAAAAAAAAAAAAAAAAAAAAAIIIIIAIIIAIIIIAAAAAAAA
AIIAIIAAIIIIIIIAAAAAAAAAAAAAAAAAAAAAAAAAAAIIIIIAIIIAIIIIAAAAAAAA
AIIAIIAAIIIIIIIAAAAAAAAAAAAAAAAAAAAAAAAAIAIIIIIAIIIAIIIIAAAAAAAA
AIIAIIAAIIIIIIIAAAAAAAAAAAAAAAAAAAAAAAAAIIIIIIIAIIIAIIIIAAAAAAAA
AIIAIIAAIIIIIIIIAAAAAAAAAAAAAAAAAAAAAAAAIIIIIIIAIIIAIIIIAAAAAAAA
AIIAIIAAIIIIIIIIIAAAAAAAAAAAAAAAAAAAAAAAIIIIIIIAIIIAIIIIAAAAAAAA
AIIAIIAAIIIIIIIIIIAAAAAAAAAAAAAAAAAAAAAAIIIIIIIAIIIAIIIIAAAAAAAA
AIIAIIAAIIIIIIIIIIIAAAAAAAAAAAAAAAAAAAAAIIIIIIIAIIIAIIIIAAAAAAAA
AIIAIIAAIIIIIIIIIIIIAAAAAAAAAAAAAAAAAAAAIIIIIIIAIIIAIIIIAAAAAAAA
AIIAIIAAIIIIIIIIIIIIIAAAAAAAAAAAAAAAAAAAIIIIIIIAIIIAIIIIAAAAAAAA
AIIAIIAAIIIIIIIIIIIIIIAAAAAAAAAAAAAAAAAAIIIIIIIAIIIAIIIIAAAAAAAA
AIIAIIAAIIIIIIIIIIIIIIIAAAAAAAAAAAAAAAAAIIIIIIIAIIIAIIIIAAAAAAAA
AIIIIIAAIIIIIIIIIIIIIIIAAAAAAAAAAAAAAAAAIIIIIIIAIIIAIIIIAAAAAAAA
AIIIIIAAIIIIIIIIIIIIIIIAAAAAAAAAAAAAAAAAIIIIIIIAIIIAIIIIAAAIAAAA
AIIIIIAAIIIIIIIIIIIIIIIAAAAAAAAAAAAAAAAAIIIIIIIAIIIAIIIIAAAIIAAA
AIIIIIAAIIIIIIIIIIIIIIIAAAAAAAAAAAAAAAAAIIIIIIIAIIIAIIIIAAAIIIAA
AIIIIIAAIIIIIIIIIIIIIIIAAAAAAAAAAAAAIAAAIIIIIIIAIIIAIIIIAAAIIIAA
AIIIIIAAIIIIIIIIIIIIIIIAAAAAAAAAAAAAIIAAIIIIIIIAIIIAIIIIAAAIIIAA
AIIIIIAAIIIIIIIIIIIIIIIAAAAAAAAAAAAAIIAAIIIIIIIAIIIAIIIIAAAIIIIA
AIIIIIAAIIIIIIIIIIIIIIIAAAAAAAAAAAAAIIAAIIIIIIIAIIIAIIIIAAAIIIII
AIIIIIAAIIIIIIIIIIIIIIIAAAAAAAAAAAAIIIAAIIIIIIIAIIIAIIIIAAAIIIII
AIIIIIAAIIIIIIIIIIIIIIIAAAAAIAAAAAAIIIAAIIIIIIIAIIIAIIIIAAAIIIII
AIIIIIAAIIIIIIIIIIIIIIIAAAAAIAIAAAAIIIAAIIIIIIIAIIIAIIIIAAAIIIII
AIIIIIAAIIIIIIIIIIIIIIIAAAAAIAIAIAAIIIAAIIIIIIIAIIIAIIIIAAAIIIII
AIIIIIAAIIIIIIIIIIIIIIIAAAAAIAIAIIAIIIAAIIIIIIIAIIIAIIIIAAAIIIII
AIIIIIAAIIIIIIIIIIIIIIIAAAAAIIIAIIAIIIAAIIIIIIIAIIIAIIIIAAAIIIII
AIIIIIAAIIIIIIIIIIIIIIIAAIAAIIIAIIAIIIAAIIIIIIIAIIIAIIIIAAAIIIII
AIIIIIAAIIIIIIIIIIIIIIIAAIAAIIIAIIAIIIAAIIIIIIIAIIAA2224AAA4444I
AIIIIIAAIIIIIIIIIIIIIIIAAIAAIIIAIIAIIIAAIIIIIIIAIIAA2222AAA44444
AIIIIIAAIIIIIIIIIIIIIIIAAIAAIIIAIIAIIIAAIIIIIIIAIIAAA222AAA44444
AIIIIIAAIIIIIIIIIIIIIIIAAIAAIIIAIIAIIIAAIIIIIIIAIIAAAA22AAA44444
AIIIIIAAIIIIIIIIIIIIIIIAAIAAIIIAIIAIIIAAIIIIIIIAIIAAAAA2AAA44444
AIIIIIAAIIIIIIIIIIIIIIIAAIAAIIIAIIAIIIAAIIIIIIIAIIAAAAAAAAA24444
AIIIIIAAIIIIIIIIIIIIIIIAAIAAIIIAIIAIIIAAIIIIIIIAIIAAAAAAAAA22444
AIIIIIAAIIIIIIIIIIIIIIIAAIAAIIIAIIAIIIAAIIIIIIIAIIAAAAAAAAA22244
AIIIIIAAIIIIIIIIIIIIIIIAAIAAIIIAIIAIIIAAIIIIIIIAIIAAAAAAAAA22224
AIIIIIAAIIIIIIIIIIIIIIIAAIAAIIIAIIAIIIAAIIIIIIIAIIAAAAAAAAAA2222
AIIIIIAAIIIIIIIIIIIIIIIAAIAAIIIAIIAIIIAAIIIIIIIAIIAAAAAAAAAAA222
AIIIIIAAIIIIIIIIIIIIIIIAAIAAIIIAIIAIIIAAIIIIIIIAIIAAAAAAAAAAAA22
AIIIIIAAIIIIIIIIIIIIIIIAAIAAIIIAIIAIIIAAIIIIIIIAIIAAAAAAAAAAAAA2
AIIIIIAAIIIIIIIIIIIIIIIAAIAAIIIAIIAIIIAAIIIIIIIAIIAAAAAAAAAAAAAA
AIIIIIAAIIIIIIIIIIIA222AA4AA444AIIAIIIAAIIIIIIIAIIAAAAAAAAAAAAAA
AIIIIIAAIIIIIIIIIIIA222AA4AA444AIIAA22AA4444IIIAIIAAAAAAAAAAAAAA
AIIIIIAAIIIIIIIIIIIAA22AA4AA444A4IAA22AA4444IIIAIIAAAAAAAAAAAAAA
AIIIIIAAIIIIIIIIIIIAA22AA4AA444A4IAAA2AA2444444A4IAAAAAAAAAAAAAA
AIIIIIAAIIIIIIIIIIIAAA2AA2AA444A44AAA2AA2444444A4IAAAAAAAAAAAAAA
AIIIIIAAIIIIIIIIIIIAAA2AA2AA444A44AAAAAA2244444A44AAAAAAAAAAAAAA
AIIIIIAAIIIIIIIIIIIAAAAAA2AA444A44AAAAAA2244444A44AAAAAAAAAAAAAA
AIIIIIAAIIIIIIIIIIIAAAAAA2AA444A44AAAAAA2224444A44AAAAAAAAAAAAAA
AIIIIIAAIIIIIIIIIIIAAAAAA2AA444A44AAAAAA2222444A44AAAAAAAAAAAAAA
AIIIIIAAIIIIIIIIIIIAAAAAA2AA244A44AAAAAA2222444A44AAAAAAAAAAAAAA
AIIIIIAAIIIIIIIIIIIAAAAAA2AA244A44AAAAAAA222244A44AAAAAAAAAAAAAA
AIIIIIAAIIIIIIIIIIIAAAAAAAAA224A44AAAAAAA222244A44AAAAAAAAAAAAAA
AIIIIIAAIIIIIIIIIIIAAAAAAAAA224A44AAAAAAAA22224A44AAAAAAAAAAAAAA
AIIIIIAAIIIIIIIIIIIAAAAAAAAA222A44AAAAAAAA22224A44AAAAAAAAAAAAAA
AIIIIIAAIIIIIIIIIIIAAAAAAAAA222A44AAAAAAAAA2222A44AAAAAAAAAAAAAA
AIIIIIAAIIIIIIIIIIIAAAAAAAAA222A44AAAAAAAAAA222A44AAAAAAAAAAAAAA
AIIIIIAAIIIIIIIIIIIAAAAAAAAAA22A24AAAAAAAAAA222A44AAAAAAAAAAAAAA
AIIIIIAAIIIIIIIIIIIAAAAAAAAAA22A24AAAAAAAAAAA22A24AAAAAAAAAAAAAA
AIIIIIAAIIIIIIIIIIIAAAAAAAAAAA2A22AAAAAAAAAAA22A24AAAAAAAAAAAAAA
AIIIIIAAIIIIIIIIIIIAAAAAAAAAAA2A22AAAAAAAAAAAA2A22AAAAAAAAAAAAAA
AIIIIIAAIIIIIIIIIIIAAAAAAAAAAAAA22AAAAAAAAAAAA2A22AAAAAAAAAAAAAA
AIIIIIAAIIIIIIIIIIIAAAAAAAAAAAAA22AAAAAAAAAAAAAA22AAAAAAAAAAAAAA
AIIIIIAAIIIIIIIIIIIAAAAAAAAAAAAAA2AAAAAAAAAAAAAA22AAAAAAAAAAAAAA
AIIIIIAAIIIIIIIIIIIAAAAAAAAAAAAAA2AAAAAAAAAAAAAAA2AAAAAAAAAAAAAA
AIIIIIAAIIIIIIIIIIIAAAAAAAAAAAAAAAAAAAAAAAAAAAAAA2AAAAAAAAAAAAAA
AIIIIIAAIIIIIIIIIIIAAAAAAAAAAAAAAAAAAAAAAAAAAAAAAAAAAAAAAAAAAAAA
AIIIIIAAIIIIIIIIIIIAAAAAAAAAAAAAAAAAAAAAAAAAAAAAAAAAAAAAAAAAAAIA
AIIIIIAAIIIIIIIIIIIAAAAAAAAAAAAAAAAAAAAAAAAAAAAAAAAAAAAIAAAAAAIA
AIIIIIAAIIIIIIIIIIIAAAAAAAAAAAAAAAAAAAAAAAAAAAAAAAAAAAAIAIAAAAIA
AIIIIIAAIIIIIIIIIIIAAAAAAAAAAAAAAAAAAAAAAAAAAAAAAAAAAAAIAIIAAAIA
AIIIIIAAIIIIIIIIIIIAAAAAAAAAAAAAAAAAAAAAAAAAAAAAAAAAAAAIAIIIAAIA
AIIIIIAAIIIIIIIIIIIAAAAAAAAAAAAAAAAAAAAAAAAAAAAAAAAAAAAIAIIIIAIA
AIIIIIAAIIIIIIIIIIIAAAIAAAAAAAAAAAAAAAAAAAAAAAAAAAAAAAAIAIIIIAIA
AIIIIIAAIIIIIIIIIIIAAAIIAAAAAAAAAAAAAAAAAAAAAAAAAAAAAAAIAIIIIAIA
AIIIIIAAIIIIIIIIIIIAAAIIIAAAAAAAAAAAAAAAAAAAAAAAAAAAAAAIAIIIIAIA
AIIIIIAAIIIIIIIIIIIAAAIIIIAAAAAAAAAAAAAAAAAAAAAAAAAAAAAIAIIIIAIA
AIIIIIAAIIIIIIIIIIIAAAIIIIIAAAAAAAAAAAAAAAAAAAAAAAAAAAAIAIIIIAIA
AIIIIIAAIIIIIIIIIIIAAAIIIIIIAAAAAAAAAAAAAAAAAAAAAAAAAAAIAIIIIAIA
AIIIIIAAIIIIIIIIIIIAAAIIIIIIIAAAAAAAAAAAAAAAAAAAAAAAAAAIAIIIIAIA
AIIIIIAAIIIIIIIIIIIAAAIIIIIIIIAAAAAAAAAAAAAAAAAAAAAAAAAIAIIIIAIA
AIIIIIAAIIIIIIIIIIIAAAIIIIIIIIAAIAAAAAAAAAAAAAAAAAAAAAAIAIIIIAIA
AIIIIIAAIIIIIIIIIIIAAAIIIIIIIIAAIIAAAAAAAAAAAAAAAAAAAAAIAIIIIAIA
AIIIIIAAIIIIIIIIIIIAAAIIIIIIIIAAIIIAAAAAAAAAAAAAAAAAAAAIAIIIIAIA
AIIIIIAAIIIIIIIIIIIAAAIIIIIIIIAAIIIIAAAAAAAAAAAAAAAAAAAIAIIIIAIA
AIIIIIAAIIIIIIIIIIIAAAIIIIIIIIAAIIIIAAAAAAAAAAAAAAAAIAAIAIIIIAIA
AIIIIIAAIIIIIIIIIIIAAAIIIIIIIIAAIIIIAAAAAAAAAAAAAAAAIIAIAIIIIAIA
AIIIIIAAIIIIIIIIIIIAAAIIIIIIIIAAIIIIAAAAAAAAAAAAAAAIIIAIAIIIIAIA
AIIIIIAAIIIIIIIIIIIAAAIIIIIIIIAAIIIIAAAIAAAAAAAAAAAIIIAIAIIIIAIA
AIIIIIAAIIIIIIIIIIIAAAIIIIIIIIAAIIIIAAAIAAAIAAAAAAAIIIAIAIIIIAIA
AIIIIIAAIIIIIIIIIIIAAAIIIIIIIIAAIIIIAAAIAAAIAAAAAAIIIIAIAIIIIAIA
AIIIIIAAIIIIIIIIIIIAAAIIIIIIIIAAIIIAAAA2AAA4AAAAAAIIIIAIAIIIIAIA
AIIIIIAAIIIIIIIIIIIAAAIIIIIIIIAAIIIAAAA2AAA4AAAAAAIA22A2AIIIIAIA
AIIIIIAAIIIIIIIIIIIAAAIIIIIIIIAAIIIAAAA2AAA4AAAAAAIAA2A2A2444A4A
AIIIIIAAIIIIIIIIIIIAAAIIIIIIIIAAIIIAAAA2AAA4AAAAAA4AA2A2A2444A4A
AIIIIIAAIIIIIIIIIIIAAAIIIIIIIIAAIIIAAAA2AAA4AAAAAA4AAAA2A2244A4A
AIIIIIAAIIIIIIIIIIIAAAIIIIIIIIAAIIIAAAA2AAA2AAAAAA4AAAA2A2244A4A
AIIIIIAAIIIIIIIIIIIAAAIIIIIIIIAAIIIAAAA2AAA2AAAAAA4AAAA2A2224A4A
AIIIIIAAIIIIIIIIIIIAAAIIIIIIIIAAIIIAAAAAAAA2AAAAAA4AAAA2A2224A4A
AIIIIIAAIIIIIIIIIIIAAAIIIIIIIIAAIIIAAAAAAAA2AAAAAA4AAAAAA2222A4A
AIIIIIAAIIIIIIIIIIIAAAIIIIIIIIAAIIIAAAAAAAA2AAAAAA4AAAAAAA222A2A
AIIIIIAAIIIIIIIIIIIAAAIIIIIIIIAAIIIAAAAAAAA2AAAAAA4AAAAAAAA22A2A
AIIIIIAAIIIIIIIIIIIAAAIIIIIIIIAAIIIAAAAAAAAAAAAAAA4AAAAAAAA22A2A
AIIIIIAAIIIIIIIIIIIAAAIIIIIIIIAAIIIAAAAAAAAAAAAAAA4AAAAAAAAA2A2A
AIIIIIAAIIIIIIIIIIIAAAIIIIIIIIAAIIIAAAAAAAAAAAAAAA4AAAAAAAAAAA2A
AIIIIIAAIIIIIIIIIIIAAAIIIIIIIIAAIIIAAAAAAAAAAAAAAA2AAAAAAAAAAA2A
AIIIIIAAIIIIIIIIIIIAAAIIIIIIIIAAIIIAAAAAAAAAAAAAAA2AAAAAAAAAAAAA
AIIIIIAAIIIIIIIIIIIAAAIIIIIIIIAAIIIAAAAAAAAAAAAAAAAAAAAAAAAAAAAA
AIIIIIAAIIIIIIIIIIIAAAIIIIIIIIAAIIIAAAAAAAIAAAAAAAAAAAAAAAAAAAAA
AIIIIIAAIIIIIIIIIIIAAAIIIIIIIIAAIIIAAAAAAAIIAAAAAAAAAAAAAAAAAAAA
AIIIIIAAIIIIIIIIIIIAAAIIIIIIIIAAIIIAAAAAAAIIIAAAAAAAAAAAAAAAAAAA
AIIIIIAAIIIIIIIIIIIAAAIIIIIIIIAAIIIAAAAAAAIIIIAAAAAAAAAAAAAAAAAA
AIIIIIAAIIIIIIIIIIIAAAIIIIIIIIAAIIIAAAAIAAIIIIAAAAAAAAAAAAAAAAAA
AIIIIIAAIIIIIIIIIIIAAAIIIIIIIIAAIIIAAAAIIAIIIIAAAAAAAAAAAAAAAAAA
AIIIIIAAIIIIIIIIIIIAAAIIIIIIIIAAIIIAAAAIIIIIIIAAAAAAAAAAAAAAAAAA
AIIIIIAAIIIIIIIIIIIAAAIIIIIIIIAAIIIAAAAIIIIIIIIAAAAAAAAAAAAAAAAA
AIIIIIAAIIIIIIIIIIIAAAIIIIIIIIAAIIIAAAAIIIIIIIIIAAAAAAAAAAAAAAAA
AIIIIIAAIIIIIIIIIIIAAAIIIIIIIIAAIIIAAAAIIIIIIIIIIAAAAAAAAAAAAAAA
AIIIIIAAIIIIIIIIIIIAAAIIIIIIIIAAIIIAAAAIIIIIIIIIIIAAAAAAAAAAAAAA
AIIIIIAAIIIIIIIIIIIAAAIIIIIIIIAAIIIAIAAIIIIIIIIIIIAAAAAAAAAAAAAA
AIIIIIAAIIIIIIIIIIIAAAIIIIIIIIAAIIIAIAAIIIIIIIIIIIAAAAAAIAAAAAAA
AIIIIIAAIIIIIIIIIIIAAAIIIIIIIIAAIIIAIAAIIIIIIIIIIIAAAAAAIIAAAAAA
AIIIIIAAIIIIIIIIIIIAAAIIIIIIIIAAIIIAIAAIIIIIIIIIIIAAAAAAIIIAAAAA
AIIIIIAAIIIIIIIIIIIAAAIIIIIIIIAAIIIAIAAIIIIIIIIIIIAAAAAAIIIIAAAA
AIIIIIAAIIIIIIIIIIIAAAIIIIIIIIAAIIIAIAAIIIIIIIIIIIAAAAAAIIIIIAAA
AIIIIIAAIIIIIIIIIIIAAAIIIIIIIIAAIIIAIAAIIIIIIIIIIIAAAAAAIIIIIIAA
AIIIIIAAIIIIIIIIIIIAAAIIIIIIIIAAIIIAIAAIIIIIIIIIIIAAAAAA244444AA
AIIIIIAAIIIIIIIIIIIAAAIIIIIIIIAAIIIAIAAIIIIIIIIIIIAAAAAA224444AA
AIIIIIAAIIIIIIIIIIIAAAIIIIIIIIAAIIIAIAAIIIIIIIIIIIAAAAAA222444AA
AIIIIIAAIIIIIIIIIIIAAAIIIIIIIIAAIIIAIAAIIIIIIIIIIIAAAAAA222244AA
AIIIIIAAIIIIIIIIIIIAAAIIIIIIIIAAIIIAIAAIIIIIIIIIIIAAAAAA222224AA
AIIIIIAAIIIIIIIIIIIAAAIIIIIIIIAAIIIAIAAIIIIIIIIIIIAAAAAAA22222AA
AIIIIIAAIIIIIIIIIIIAAAIIIIIIIIAAIIIAIAAIIIIIIIIIIIAAAAAAAA2222AA
AIIIIIAAIIIIIIIIIIIAAAIIIIIIIIAAIIIAIAAIIIIIIIIIIIAAAAAAAAA222AA
AIIIIIAAIIIIIIIIIIIAAAIIIIIIIIAAIIIAIAAIIIIIIIIIIIAAAAAAAAAA22AA
AIIIIIAAIIIIIIIIIIIAAAIIIIIIIIAAIIIAIAAIIIIIIIIIIIAAAAAAAAAAA2AA
AIIIIIAAIIIIIIIIIIIAAAIIIIIIIIAAIIIAIAAIIIIIIIIIIIAAAAAAAAAAAAAA
AIIIIIAAIIIIIIIIIIIAAAIIIIIIIIAAIIIAIAAIIIIIIIIIIIAAAIAAAAAAAAAA
AIIIIIAAIIIIIIIIIIIAAAIIIIIIIIAAIIIAIAAIIIIIIIIIIIAAAIAAIAAAAAAA
AIIIIIAAIIIIIIIIIIIAAAIIIIIIIIAAIIIAIAAIIIIIIIIIIIAAAIAAIIAAAAAA
AIIIIIAAIIIIIIIIIIIAAAIIIIIIIIAAIIIAIAAIIIIIIIIIIIAAAIAAIIIAAAAA
AIIIIIAAIIIIIIIIIIIAAAIIIIIIIIAAIIIAIAAIIIIIIIIIIIAAAIAAIIIIAAAA
AIIIIIAAIIIIIIIIIIIAAAIIIIIIIIAAIIIAIAAIIIIIIIIIIIAAAIAAIIIIIAAA
AIIIIIAAIIIIIIIIIIIAAAIIIIIIIIAAIIIAIAAIIIIIIIIIIIAAAIAAIIIIIIAA
AIIIIIAAIIIIIIIIIIIAAAIIIIIIIIAAIIIAIAAIIIIIIIIIIIAAAIAAIIIIIIIA
AIIIIIAAIIIIIIIIIIIAAAIIIIIIIIAAIIIAIAAIIIIIIIIIIIAAAIAAIIIIIIII
[MLOP] Prefetch Degree Mean: 15.65114
[MLOP] Prefetch Degree SD: 1.15044
[MLOP] Max Score Left Mean (%): 64.50060
[MLOP] Max Score Left SD (%): 19.31542
[MLOP] Max Score Right Mean (%): 99.27549
[MLOP] Max Score Right SD (%): 1.64908

Channel_0_RQ_row_buffer_hit 1248147
Channel_0_RQ_row_buffer_miss 2084018
Channel_0_WQ_row_buffer_hit 321821
Channel_0_WQ_row_buffer_miss 635907
Channel_0_WQ_full 4148
Channel_0_dbus_congested 812878

avg_congested_cycle 4

DRAM_bw_pochs 2126402
DRAM_bw_level_0 2058940
DRAM_bw_level_1 55820
DRAM_bw_level_2 7826
DRAM_bw_level_3 3816
