*************************************************
   ChampSim Multicore Out-of-Order Simulator
   Last compiled: Dec 11 2024 17:59:53
*************************************************
parsing config file: /home/functionmain/桌面/Pythia/config/mlop.ini

trace_0 /home/functionmain/桌面/Pythia/traces/437.leslie3d-149B.champsimtrace.xz
adding L2C_PREFETCHER: MLOP
Initialize SHIP state
warmup_instructions 100000000
simulation_instructions 500000000
champsim_seed 224
measure_ipc 0
measure_ipc_epoch 1000
measure_dram_bw 1
measure_dram_bw_epoch 256
measure_cache_acc 1
measure_cache_acc_epoch 1024
l1d_perfect 0
l2c_perfect 0
llc_perfect 0
l1d_semi_perfect 0
l2c_semi_perfect 0
llc_semi_perfect 0
semi_perfect_cache_page_buffer_size 64

num_cpus 1
cpu_freq 4000
dram_io_freq 2400
page_size 4096
block_size 64
max_read_per_cycle 8
max_fill_per_cycle 1
dram_channels 1
log2_dram_channels 0
dram_ranks 1
dram_banks 8
dram_rows 65536
dram_columns 128
dram_row_size 8
dram_size 4096
dram_pages 1048576

fetch_width 6
decode_width 6
exec_width 4
lq_width 2
sq_width 2
retire_width 4
scheduler_size 128
branch_mispredict_penalty 20
rob_size 256
lq_size 72
sq_size 56
num_instr_destinations_sparc 4
num_instr_destinations 2
num_instr_sources 4

itlb_set 16
itlb_way 8
itlb_rq_size 16
itlb_wq_size 16
itlb_pq_size 0
itlb_mshr_size 8
itlb_latency 1

dtlb_set 16
dtlb_way 4
dtlb_rq_size 16
dtlb_wq_size 16
dtlb_pq_size 0
dtlb_mshr_size 8
dtlb_latency 1

stlb_set 128
stlb_way 12
stlb_rq_size 32
stlb_wq_size 32
stlb_pq_size 0
stlb_mshr_size 16
stlb_latency 8

l1i_size 32
l1i_set 64
l1i_way 8
l1i_rq_size 64
l1i_wq_size 64
l1i_pq_size 8
l1i_mshr_size 8
l1i_latency 1

l1d_size 32
l1d_set 64
l1d_way 8
l1d_rq_size 64
l1d_wq_size 64
l1d_pq_size 8
l1d_mshr_size 16
l1d_latency 4

l2c_size 256
l2c_set 512
l2c_way 8
l2c_rq_size 32
l2c_wq_size 32
l2c_pq_size 32
l2c_mshr_size 32
l2c_latency 10

llc_size 2048
llc_set 2048
llc_way 16
llc_rq_size 32
llc_wq_size 32
llc_pq_size 32
llc_mshr_size 64
llc_latency 20

dram_channel_width 8
dram_wq_size 64
dram_rq_size 64
tRP 15
tRCD 15
tCAS 12.5
dram_dbus_turn_around_time 30
dram_write_high_wm 56
dram_write_low_wm 48
min_dram_writes_per_switch 16
dram_mtps 2400
dram_dbus_return_time 13

mlop_pref_degree 16
mlop_num_updates 500
mlop_l1d_thresh 2
mlop_l2c_thresh 0.75
mlop_llc_thresh 0.3
mlop_debug_level 0
mlop_blocks_in_cache 4096
mlop_blocks_in_zone 64
mlop_amt_size 2048
mlop_PF_DEGREE 16
mlop_NUM_UPDATES 500
mlop_L1D_THRESH 1000
mlop_L2C_THRESH 375
mlop_LLC_THRESH 150
mlop_ORIGIN 63
mlop_MAX_OFFSET 63
mlop_MIN_OFFSET -63
mlop_ORIGIN 63
mlop_NUM_OFFSETS 127


Heartbeat CPU  0 instructions:    1000002 cycles:     502917 heartbeat IPC: 1.98840 cumulative IPC: 1.98840 (Simulation time: 0 hr 0 min 2 sec) 
Heartbeat CPU  0 instructions:    2000001 cycles:     991178 heartbeat IPC: 2.04808 cumulative IPC: 2.01780 (Simulation time: 0 hr 0 min 4 sec) 
Heartbeat CPU  0 instructions:    3000003 cycles:    1493319 heartbeat IPC: 1.99148 cumulative IPC: 2.00895 (Simulation time: 0 hr 0 min 6 sec) 
Heartbeat CPU  0 instructions:    4000000 cycles:    1995187 heartbeat IPC: 1.99255 cumulative IPC: 2.00482 (Simulation time: 0 hr 0 min 8 sec) 
Heartbeat CPU  0 instructions:    5000000 cycles:    2497528 heartbeat IPC: 1.99068 cumulative IPC: 2.00198 (Simulation time: 0 hr 0 min 10 sec) 
Heartbeat CPU  0 instructions:    6000001 cycles:    2997467 heartbeat IPC: 2.00025 cumulative IPC: 2.00169 (Simulation time: 0 hr 0 min 12 sec) 
Heartbeat CPU  0 instructions:    7000000 cycles:    3487670 heartbeat IPC: 2.03997 cumulative IPC: 2.00707 (Simulation time: 0 hr 0 min 14 sec) 
Heartbeat CPU  0 instructions:    8000000 cycles:    3990780 heartbeat IPC: 1.98764 cumulative IPC: 2.00462 (Simulation time: 0 hr 0 min 16 sec) 
Heartbeat CPU  0 instructions:    9000002 cycles:    4492720 heartbeat IPC: 1.99227 cumulative IPC: 2.00324 (Simulation time: 0 hr 0 min 18 sec) 
Heartbeat CPU  0 instructions:   10000000 cycles:    4994706 heartbeat IPC: 1.99208 cumulative IPC: 2.00212 (Simulation time: 0 hr 0 min 20 sec) 
Heartbeat CPU  0 instructions:   11000002 cycles:    5485785 heartbeat IPC: 2.03634 cumulative IPC: 2.00518 (Simulation time: 0 hr 0 min 22 sec) 
Heartbeat CPU  0 instructions:   12000000 cycles:    5984786 heartbeat IPC: 2.00400 cumulative IPC: 2.00508 (Simulation time: 0 hr 0 min 24 sec) 
Heartbeat CPU  0 instructions:   13000002 cycles:    6487299 heartbeat IPC: 1.99000 cumulative IPC: 2.00392 (Simulation time: 0 hr 0 min 26 sec) 
Heartbeat CPU  0 instructions:   14000003 cycles:    6989761 heartbeat IPC: 1.99020 cumulative IPC: 2.00293 (Simulation time: 0 hr 0 min 28 sec) 
Heartbeat CPU  0 instructions:   15000002 cycles:    7491998 heartbeat IPC: 1.99109 cumulative IPC: 2.00214 (Simulation time: 0 hr 0 min 30 sec) 
Heartbeat CPU  0 instructions:   16000000 cycles:    7979632 heartbeat IPC: 2.05071 cumulative IPC: 2.00511 (Simulation time: 0 hr 0 min 32 sec) 
Heartbeat CPU  0 instructions:   17000001 cycles:    8482462 heartbeat IPC: 1.98875 cumulative IPC: 2.00414 (Simulation time: 0 hr 0 min 35 sec) 
Heartbeat CPU  0 instructions:   18000003 cycles:    8985644 heartbeat IPC: 1.98736 cumulative IPC: 2.00320 (Simulation time: 0 hr 0 min 37 sec) 
Heartbeat CPU  0 instructions:   19000003 cycles:    9487962 heartbeat IPC: 1.99077 cumulative IPC: 2.00254 (Simulation time: 0 hr 0 min 39 sec) 
Heartbeat CPU  0 instructions:   20000000 cycles:    9980074 heartbeat IPC: 2.03205 cumulative IPC: 2.00399 (Simulation time: 0 hr 0 min 41 sec) 
Heartbeat CPU  0 instructions:   21000003 cycles:   10477474 heartbeat IPC: 2.01046 cumulative IPC: 2.00430 (Simulation time: 0 hr 0 min 43 sec) 
Heartbeat CPU  0 instructions:   22000001 cycles:   10980217 heartbeat IPC: 1.98908 cumulative IPC: 2.00360 (Simulation time: 0 hr 0 min 45 sec) 
Heartbeat CPU  0 instructions:   23000002 cycles:   11482920 heartbeat IPC: 1.98925 cumulative IPC: 2.00297 (Simulation time: 0 hr 0 min 47 sec) 
Heartbeat CPU  0 instructions:   24000000 cycles:   11984996 heartbeat IPC: 1.99173 cumulative IPC: 2.00250 (Simulation time: 0 hr 0 min 49 sec) 
Heartbeat CPU  0 instructions:   25000002 cycles:   12472585 heartbeat IPC: 2.05091 cumulative IPC: 2.00440 (Simulation time: 0 hr 0 min 51 sec) 
Heartbeat CPU  0 instructions:   26000002 cycles:   12974433 heartbeat IPC: 1.99264 cumulative IPC: 2.00394 (Simulation time: 0 hr 0 min 53 sec) 
Heartbeat CPU  0 instructions:   27000001 cycles:   13476807 heartbeat IPC: 1.99055 cumulative IPC: 2.00344 (Simulation time: 0 hr 0 min 55 sec) 
Heartbeat CPU  0 instructions:   28000000 cycles:   13979427 heartbeat IPC: 1.98957 cumulative IPC: 2.00294 (Simulation time: 0 hr 0 min 57 sec) 
Heartbeat CPU  0 instructions:   29000003 cycles:   14474460 heartbeat IPC: 2.02007 cumulative IPC: 2.00353 (Simulation time: 0 hr 0 min 59 sec) 
Heartbeat CPU  0 instructions:   30000003 cycles:   14969142 heartbeat IPC: 2.02150 cumulative IPC: 2.00412 (Simulation time: 0 hr 1 min 1 sec) 
Heartbeat CPU  0 instructions:   31000001 cycles:   15471296 heartbeat IPC: 1.99142 cumulative IPC: 2.00371 (Simulation time: 0 hr 1 min 3 sec) 
Heartbeat CPU  0 instructions:   32000000 cycles:   15973641 heartbeat IPC: 1.99066 cumulative IPC: 2.00330 (Simulation time: 0 hr 1 min 5 sec) 
Heartbeat CPU  0 instructions:   33000000 cycles:   16476150 heartbeat IPC: 1.99001 cumulative IPC: 2.00290 (Simulation time: 0 hr 1 min 7 sec) 
Heartbeat CPU  0 instructions:   34000003 cycles:   16963966 heartbeat IPC: 2.04996 cumulative IPC: 2.00425 (Simulation time: 0 hr 1 min 9 sec) 
Heartbeat CPU  0 instructions:   35000003 cycles:   17466026 heartbeat IPC: 1.99179 cumulative IPC: 2.00389 (Simulation time: 0 hr 1 min 11 sec) 
Heartbeat CPU  0 instructions:   36000000 cycles:   17968002 heartbeat IPC: 1.99212 cumulative IPC: 2.00356 (Simulation time: 0 hr 1 min 14 sec) 
Heartbeat CPU  0 instructions:   37000001 cycles:   18471045 heartbeat IPC: 1.98790 cumulative IPC: 2.00314 (Simulation time: 0 hr 1 min 16 sec) 
Heartbeat CPU  0 instructions:   38000003 cycles:   18968700 heartbeat IPC: 2.00943 cumulative IPC: 2.00330 (Simulation time: 0 hr 1 min 18 sec) 
Heartbeat CPU  0 instructions:   39000001 cycles:   19461372 heartbeat IPC: 2.02974 cumulative IPC: 2.00397 (Simulation time: 0 hr 1 min 20 sec) 
Heartbeat CPU  0 instructions:   40000000 cycles:   19963600 heartbeat IPC: 1.99113 cumulative IPC: 2.00365 (Simulation time: 0 hr 1 min 22 sec) 
Heartbeat CPU  0 instructions:   41000002 cycles:   20466024 heartbeat IPC: 1.99035 cumulative IPC: 2.00332 (Simulation time: 0 hr 1 min 24 sec) 
Heartbeat CPU  0 instructions:   42000000 cycles:   20968700 heartbeat IPC: 1.98935 cumulative IPC: 2.00299 (Simulation time: 0 hr 1 min 26 sec) 
Heartbeat CPU  0 instructions:   43000000 cycles:   21456825 heartbeat IPC: 2.04866 cumulative IPC: 2.00402 (Simulation time: 0 hr 1 min 28 sec) 
Heartbeat CPU  0 instructions:   44000000 cycles:   21959114 heartbeat IPC: 1.99089 cumulative IPC: 2.00372 (Simulation time: 0 hr 1 min 30 sec) 
Heartbeat CPU  0 instructions:   45000002 cycles:   22461791 heartbeat IPC: 1.98935 cumulative IPC: 2.00340 (Simulation time: 0 hr 1 min 32 sec) 
Heartbeat CPU  0 instructions:   46000003 cycles:   22963718 heartbeat IPC: 1.99232 cumulative IPC: 2.00316 (Simulation time: 0 hr 1 min 34 sec) 
Heartbeat CPU  0 instructions:   47000000 cycles:   23462742 heartbeat IPC: 2.00391 cumulative IPC: 2.00318 (Simulation time: 0 hr 1 min 36 sec) 
Heartbeat CPU  0 instructions:   48000000 cycles:   23953728 heartbeat IPC: 2.03672 cumulative IPC: 2.00386 (Simulation time: 0 hr 1 min 38 sec) 
Heartbeat CPU  0 instructions:   49000002 cycles:   24456589 heartbeat IPC: 1.98863 cumulative IPC: 2.00355 (Simulation time: 0 hr 1 min 40 sec) 
Heartbeat CPU  0 instructions:   50000003 cycles:   24958942 heartbeat IPC: 1.99063 cumulative IPC: 2.00329 (Simulation time: 0 hr 1 min 42 sec) 
Heartbeat CPU  0 instructions:   51000001 cycles:   25460994 heartbeat IPC: 1.99182 cumulative IPC: 2.00306 (Simulation time: 0 hr 1 min 44 sec) 
Heartbeat CPU  0 instructions:   52000000 cycles:   25951122 heartbeat IPC: 2.04028 cumulative IPC: 2.00377 (Simulation time: 0 hr 1 min 46 sec) 
Heartbeat CPU  0 instructions:   53000003 cycles:   26450957 heartbeat IPC: 2.00067 cumulative IPC: 2.00371 (Simulation time: 0 hr 1 min 48 sec) 
Heartbeat CPU  0 instructions:   54000003 cycles:   26962397 heartbeat IPC: 1.95526 cumulative IPC: 2.00279 (Simulation time: 0 hr 1 min 50 sec) 
Heartbeat CPU  0 instructions:   55000001 cycles:   27481526 heartbeat IPC: 1.92630 cumulative IPC: 2.00134 (Simulation time: 0 hr 1 min 52 sec) 
Heartbeat CPU  0 instructions:   56000000 cycles:   27993987 heartbeat IPC: 1.95137 cumulative IPC: 2.00043 (Simulation time: 0 hr 1 min 54 sec) 
Heartbeat CPU  0 instructions:   57000000 cycles:   28505879 heartbeat IPC: 1.95354 cumulative IPC: 1.99959 (Simulation time: 0 hr 1 min 56 sec) 
Heartbeat CPU  0 instructions:   58000002 cycles:   29019797 heartbeat IPC: 1.94584 cumulative IPC: 1.99864 (Simulation time: 0 hr 1 min 58 sec) 
Heartbeat CPU  0 instructions:   59000003 cycles:   29531182 heartbeat IPC: 1.95548 cumulative IPC: 1.99789 (Simulation time: 0 hr 2 min 0 sec) 
Heartbeat CPU  0 instructions:   60000000 cycles:   30041726 heartbeat IPC: 1.95869 cumulative IPC: 1.99722 (Simulation time: 0 hr 2 min 2 sec) 
Heartbeat CPU  0 instructions:   61000001 cycles:   30554220 heartbeat IPC: 1.95124 cumulative IPC: 1.99645 (Simulation time: 0 hr 2 min 4 sec) 
Heartbeat CPU  0 instructions:   62000003 cycles:   31066800 heartbeat IPC: 1.95092 cumulative IPC: 1.99570 (Simulation time: 0 hr 2 min 6 sec) 
Heartbeat CPU  0 instructions:   63000001 cycles:   31578645 heartbeat IPC: 1.95371 cumulative IPC: 1.99502 (Simulation time: 0 hr 2 min 8 sec) 
Heartbeat CPU  0 instructions:   64000000 cycles:   32091967 heartbeat IPC: 1.94809 cumulative IPC: 1.99427 (Simulation time: 0 hr 2 min 9 sec) 
Heartbeat CPU  0 instructions:   65000000 cycles:   32605326 heartbeat IPC: 1.94795 cumulative IPC: 1.99354 (Simulation time: 0 hr 2 min 11 sec) 
Heartbeat CPU  0 instructions:   66000002 cycles:   33117184 heartbeat IPC: 1.95367 cumulative IPC: 1.99292 (Simulation time: 0 hr 2 min 13 sec) 
Heartbeat CPU  0 instructions:   67000002 cycles:   33630502 heartbeat IPC: 1.94811 cumulative IPC: 1.99224 (Simulation time: 0 hr 2 min 15 sec) 
Heartbeat CPU  0 instructions:   68000000 cycles:   34143709 heartbeat IPC: 1.94853 cumulative IPC: 1.99158 (Simulation time: 0 hr 2 min 17 sec) 
Heartbeat CPU  0 instructions:   69000001 cycles:   34655272 heartbeat IPC: 1.95480 cumulative IPC: 1.99104 (Simulation time: 0 hr 2 min 19 sec) 
Heartbeat CPU  0 instructions:   70000003 cycles:   35168163 heartbeat IPC: 1.94974 cumulative IPC: 1.99044 (Simulation time: 0 hr 2 min 21 sec) 
Heartbeat CPU  0 instructions:   71000002 cycles:   35680939 heartbeat IPC: 1.95017 cumulative IPC: 1.98986 (Simulation time: 0 hr 2 min 23 sec) 
Heartbeat CPU  0 instructions:   72000000 cycles:   36192366 heartbeat IPC: 1.95531 cumulative IPC: 1.98937 (Simulation time: 0 hr 2 min 25 sec) 
Heartbeat CPU  0 instructions:   73000003 cycles:   36704766 heartbeat IPC: 1.95161 cumulative IPC: 1.98884 (Simulation time: 0 hr 2 min 27 sec) 
Heartbeat CPU  0 instructions:   74000001 cycles:   37217385 heartbeat IPC: 1.95076 cumulative IPC: 1.98832 (Simulation time: 0 hr 2 min 29 sec) 
Heartbeat CPU  0 instructions:   75000001 cycles:   37729318 heartbeat IPC: 1.95338 cumulative IPC: 1.98784 (Simulation time: 0 hr 2 min 30 sec) 
Heartbeat CPU  0 instructions:   76000000 cycles:   38242079 heartbeat IPC: 1.95022 cumulative IPC: 1.98734 (Simulation time: 0 hr 2 min 32 sec) 
Heartbeat CPU  0 instructions:   77000001 cycles:   38755556 heartbeat IPC: 1.94751 cumulative IPC: 1.98681 (Simulation time: 0 hr 2 min 34 sec) 
Heartbeat CPU  0 instructions:   78000003 cycles:   39267551 heartbeat IPC: 1.95315 cumulative IPC: 1.98637 (Simulation time: 0 hr 2 min 36 sec) 
Heartbeat CPU  0 instructions:   79000000 cycles:   39780141 heartbeat IPC: 1.95087 cumulative IPC: 1.98592 (Simulation time: 0 hr 2 min 38 sec) 
Heartbeat CPU  0 instructions:   80000000 cycles:   40293512 heartbeat IPC: 1.94791 cumulative IPC: 1.98543 (Simulation time: 0 hr 2 min 40 sec) 
Heartbeat CPU  0 instructions:   81000000 cycles:   40805492 heartbeat IPC: 1.95320 cumulative IPC: 1.98503 (Simulation time: 0 hr 2 min 42 sec) 
Heartbeat CPU  0 instructions:   82000001 cycles:   41317748 heartbeat IPC: 1.95215 cumulative IPC: 1.98462 (Simulation time: 0 hr 2 min 44 sec) 
Heartbeat CPU  0 instructions:   83000001 cycles:   41831362 heartbeat IPC: 1.94699 cumulative IPC: 1.98416 (Simulation time: 0 hr 2 min 46 sec) 
Heartbeat CPU  0 instructions:   84000000 cycles:   42343247 heartbeat IPC: 1.95356 cumulative IPC: 1.98379 (Simulation time: 0 hr 2 min 48 sec) 
Heartbeat CPU  0 instructions:   85000001 cycles:   42855341 heartbeat IPC: 1.95277 cumulative IPC: 1.98342 (Simulation time: 0 hr 2 min 50 sec) 
Heartbeat CPU  0 instructions:   86000002 cycles:   43368828 heartbeat IPC: 1.94747 cumulative IPC: 1.98299 (Simulation time: 0 hr 2 min 52 sec) 
Heartbeat CPU  0 instructions:   87000003 cycles:   43880660 heartbeat IPC: 1.95377 cumulative IPC: 1.98265 (Simulation time: 0 hr 2 min 54 sec) 
Heartbeat CPU  0 instructions:   88000000 cycles:   44392792 heartbeat IPC: 1.95262 cumulative IPC: 1.98230 (Simulation time: 0 hr 2 min 56 sec) 
Heartbeat CPU  0 instructions:   89000002 cycles:   44906519 heartbeat IPC: 1.94656 cumulative IPC: 1.98189 (Simulation time: 0 hr 2 min 59 sec) 
Heartbeat CPU  0 instructions:   90000003 cycles:   45418620 heartbeat IPC: 1.95274 cumulative IPC: 1.98157 (Simulation time: 0 hr 3 min 1 sec) 
Heartbeat CPU  0 instructions:   91000002 cycles:   45929365 heartbeat IPC: 1.95792 cumulative IPC: 1.98130 (Simulation time: 0 hr 3 min 3 sec) 
Heartbeat CPU  0 instructions:   92000000 cycles:   46441957 heartbeat IPC: 1.95087 cumulative IPC: 1.98097 (Simulation time: 0 hr 3 min 5 sec) 
Heartbeat CPU  0 instructions:   93000001 cycles:   46953122 heartbeat IPC: 1.95632 cumulative IPC: 1.98070 (Simulation time: 0 hr 3 min 7 sec) 
Heartbeat CPU  0 instructions:   94000003 cycles:   47464662 heartbeat IPC: 1.95489 cumulative IPC: 1.98042 (Simulation time: 0 hr 3 min 9 sec) 
Heartbeat CPU  0 instructions:   95000003 cycles:   47978486 heartbeat IPC: 1.94619 cumulative IPC: 1.98005 (Simulation time: 0 hr 3 min 11 sec) 
Heartbeat CPU  0 instructions:   96000000 cycles:   48490863 heartbeat IPC: 1.95168 cumulative IPC: 1.97975 (Simulation time: 0 hr 3 min 13 sec) 
Heartbeat CPU  0 instructions:   97000002 cycles:   49002330 heartbeat IPC: 1.95516 cumulative IPC: 1.97950 (Simulation time: 0 hr 3 min 15 sec) 
Heartbeat CPU  0 instructions:   98000000 cycles:   49515417 heartbeat IPC: 1.94898 cumulative IPC: 1.97918 (Simulation time: 0 hr 3 min 17 sec) 
Heartbeat CPU  0 instructions:   99000000 cycles:   50027393 heartbeat IPC: 1.95322 cumulative IPC: 1.97892 (Simulation time: 0 hr 3 min 19 sec) 
Heartbeat CPU  0 instructions:  100000000 cycles:   50563799 heartbeat IPC: 1.86426 cumulative IPC: 1.97770 (Simulation time: 0 hr 3 min 21 sec) 

Warmup complete CPU  0 instructions:  100000001 cycles:   50563820 (Simulation time: 0 hr 3 min 21 sec) 

Heartbeat CPU  0 instructions:  101000003 cycles:   52214235 heartbeat IPC: 0.60590 cumulative IPC: 0.60591 (Simulation time: 0 hr 3 min 24 sec) 
Heartbeat CPU  0 instructions:  102000000 cycles:   55328339 heartbeat IPC: 0.32112 cumulative IPC: 0.41977 (Simulation time: 0 hr 3 min 29 sec) 
Heartbeat CPU  0 instructions:  103000002 cycles:   57534813 heartbeat IPC: 0.45321 cumulative IPC: 0.43035 (Simulation time: 0 hr 3 min 32 sec) 
Heartbeat CPU  0 instructions:  104000000 cycles:   58265889 heartbeat IPC: 1.36784 cumulative IPC: 0.51934 (Simulation time: 0 hr 3 min 35 sec) 
Heartbeat CPU  0 instructions:  105000002 cycles:   59004546 heartbeat IPC: 1.35381 cumulative IPC: 0.59237 (Simulation time: 0 hr 3 min 38 sec) 
Heartbeat CPU  0 instructions:  106000003 cycles:   59739837 heartbeat IPC: 1.36001 cumulative IPC: 0.65388 (Simulation time: 0 hr 3 min 41 sec) 
Heartbeat CPU  0 instructions:  107000000 cycles:   60479352 heartbeat IPC: 1.35223 cumulative IPC: 0.70596 (Simulation time: 0 hr 3 min 44 sec) 
Heartbeat CPU  0 instructions:  108000000 cycles:   61212999 heartbeat IPC: 1.36305 cumulative IPC: 0.75123 (Simulation time: 0 hr 3 min 46 sec) 
Heartbeat CPU  0 instructions:  109000001 cycles:   61948972 heartbeat IPC: 1.35875 cumulative IPC: 0.79050 (Simulation time: 0 hr 3 min 49 sec) 
Heartbeat CPU  0 instructions:  110000001 cycles:   62717693 heartbeat IPC: 1.30086 cumulative IPC: 0.82278 (Simulation time: 0 hr 3 min 52 sec) 
Heartbeat CPU  0 instructions:  111000001 cycles:   63505254 heartbeat IPC: 1.26974 cumulative IPC: 0.84998 (Simulation time: 0 hr 3 min 54 sec) 
Heartbeat CPU  0 instructions:  112000000 cycles:   64291525 heartbeat IPC: 1.27182 cumulative IPC: 0.87414 (Simulation time: 0 hr 3 min 57 sec) 
Heartbeat CPU  0 instructions:  113000003 cycles:   65081692 heartbeat IPC: 1.26556 cumulative IPC: 0.89545 (Simulation time: 0 hr 4 min 0 sec) 
Heartbeat CPU  0 instructions:  114000001 cycles:   65861945 heartbeat IPC: 1.28163 cumulative IPC: 0.91514 (Simulation time: 0 hr 4 min 2 sec) 
Heartbeat CPU  0 instructions:  115000001 cycles:   66650305 heartbeat IPC: 1.26846 cumulative IPC: 0.93246 (Simulation time: 0 hr 4 min 5 sec) 
Heartbeat CPU  0 instructions:  116000000 cycles:   67458331 heartbeat IPC: 1.23758 cumulative IPC: 0.94705 (Simulation time: 0 hr 4 min 8 sec) 
Heartbeat CPU  0 instructions:  117000000 cycles:   68258051 heartbeat IPC: 1.25044 cumulative IPC: 0.96077 (Simulation time: 0 hr 4 min 10 sec) 
Heartbeat CPU  0 instructions:  118000003 cycles:   69210841 heartbeat IPC: 1.04955 cumulative IPC: 0.96530 (Simulation time: 0 hr 4 min 13 sec) 
Heartbeat CPU  0 instructions:  119000000 cycles:   70286556 heartbeat IPC: 0.92961 cumulative IPC: 0.96336 (Simulation time: 0 hr 4 min 16 sec) 
Heartbeat CPU  0 instructions:  120000000 cycles:   71092750 heartbeat IPC: 1.24040 cumulative IPC: 0.97423 (Simulation time: 0 hr 4 min 18 sec) 
Heartbeat CPU  0 instructions:  121000001 cycles:   71899611 heartbeat IPC: 1.23937 cumulative IPC: 0.98426 (Simulation time: 0 hr 4 min 21 sec) 
Heartbeat CPU  0 instructions:  122000002 cycles:   72705629 heartbeat IPC: 1.24067 cumulative IPC: 0.99360 (Simulation time: 0 hr 4 min 23 sec) 
Heartbeat CPU  0 instructions:  123000000 cycles:   73512948 heartbeat IPC: 1.23867 cumulative IPC: 1.00222 (Simulation time: 0 hr 4 min 26 sec) 
Heartbeat CPU  0 instructions:  124000000 cycles:   74318913 heartbeat IPC: 1.24075 cumulative IPC: 1.01031 (Simulation time: 0 hr 4 min 28 sec) 
Heartbeat CPU  0 instructions:  125000002 cycles:   75124714 heartbeat IPC: 1.24100 cumulative IPC: 1.01788 (Simulation time: 0 hr 4 min 31 sec) 
Heartbeat CPU  0 instructions:  126000001 cycles:   75935634 heartbeat IPC: 1.23317 cumulative IPC: 1.02476 (Simulation time: 0 hr 4 min 33 sec) 
Heartbeat CPU  0 instructions:  127000003 cycles:   76814614 heartbeat IPC: 1.13768 cumulative IPC: 1.02854 (Simulation time: 0 hr 4 min 36 sec) 
Heartbeat CPU  0 instructions:  128000000 cycles:   77871976 heartbeat IPC: 0.94575 cumulative IPC: 1.02533 (Simulation time: 0 hr 4 min 39 sec) 
Heartbeat CPU  0 instructions:  129000001 cycles:   78753232 heartbeat IPC: 1.13475 cumulative IPC: 1.02876 (Simulation time: 0 hr 4 min 41 sec) 
Heartbeat CPU  0 instructions:  130000003 cycles:   79565219 heartbeat IPC: 1.23155 cumulative IPC: 1.03443 (Simulation time: 0 hr 4 min 44 sec) 
Heartbeat CPU  0 instructions:  131000000 cycles:   80371837 heartbeat IPC: 1.23974 cumulative IPC: 1.03999 (Simulation time: 0 hr 4 min 46 sec) 
Heartbeat CPU  0 instructions:  132000000 cycles:   81295270 heartbeat IPC: 1.08292 cumulative IPC: 1.04128 (Simulation time: 0 hr 4 min 49 sec) 
Heartbeat CPU  0 instructions:  133000000 cycles:   82353312 heartbeat IPC: 0.94514 cumulative IPC: 1.03808 (Simulation time: 0 hr 4 min 51 sec) 
Heartbeat CPU  0 instructions:  134000003 cycles:   83177760 heartbeat IPC: 1.21294 cumulative IPC: 1.04250 (Simulation time: 0 hr 4 min 54 sec) 
Heartbeat CPU  0 instructions:  135000003 cycles:   83984714 heartbeat IPC: 1.23923 cumulative IPC: 1.04725 (Simulation time: 0 hr 4 min 57 sec) 
Heartbeat CPU  0 instructions:  136000000 cycles:   84790242 heartbeat IPC: 1.24142 cumulative IPC: 1.05182 (Simulation time: 0 hr 5 min 0 sec) 
Heartbeat CPU  0 instructions:  137000003 cycles:   85597650 heartbeat IPC: 1.23853 cumulative IPC: 1.05612 (Simulation time: 0 hr 5 min 2 sec) 
Heartbeat CPU  0 instructions:  138000002 cycles:   86404363 heartbeat IPC: 1.23960 cumulative IPC: 1.06025 (Simulation time: 0 hr 5 min 5 sec) 
Heartbeat CPU  0 instructions:  139000002 cycles:   87211005 heartbeat IPC: 1.23971 cumulative IPC: 1.06420 (Simulation time: 0 hr 5 min 7 sec) 
Heartbeat CPU  0 instructions:  140000000 cycles:   88015983 heartbeat IPC: 1.24227 cumulative IPC: 1.06803 (Simulation time: 0 hr 5 min 10 sec) 
Heartbeat CPU  0 instructions:  141000000 cycles:   88827342 heartbeat IPC: 1.23250 cumulative IPC: 1.07152 (Simulation time: 0 hr 5 min 13 sec) 
Heartbeat CPU  0 instructions:  142000000 cycles:   89893674 heartbeat IPC: 0.93779 cumulative IPC: 1.06789 (Simulation time: 0 hr 5 min 15 sec) 
Heartbeat CPU  0 instructions:  143000003 cycles:   90840688 heartbeat IPC: 1.05595 cumulative IPC: 1.06761 (Simulation time: 0 hr 5 min 18 sec) 
Heartbeat CPU  0 instructions:  144000000 cycles:   91649274 heartbeat IPC: 1.23672 cumulative IPC: 1.07094 (Simulation time: 0 hr 5 min 20 sec) 
Heartbeat CPU  0 instructions:  145000001 cycles:   92456680 heartbeat IPC: 1.23854 cumulative IPC: 1.07417 (Simulation time: 0 hr 5 min 23 sec) 
Heartbeat CPU  0 instructions:  146000003 cycles:   93307444 heartbeat IPC: 1.17542 cumulative IPC: 1.07618 (Simulation time: 0 hr 5 min 26 sec) 
Heartbeat CPU  0 instructions:  147000000 cycles:   94265869 heartbeat IPC: 1.04338 cumulative IPC: 1.07546 (Simulation time: 0 hr 5 min 28 sec) 
Heartbeat CPU  0 instructions:  148000000 cycles:   95104361 heartbeat IPC: 1.19262 cumulative IPC: 1.07767 (Simulation time: 0 hr 5 min 31 sec) 
Heartbeat CPU  0 instructions:  149000003 cycles:   95910084 heartbeat IPC: 1.24113 cumulative IPC: 1.08057 (Simulation time: 0 hr 5 min 33 sec) 
Heartbeat CPU  0 instructions:  150000003 cycles:   96716502 heartbeat IPC: 1.24005 cumulative IPC: 1.08336 (Simulation time: 0 hr 5 min 36 sec) 
Heartbeat CPU  0 instructions:  151000000 cycles:   97521926 heartbeat IPC: 1.24158 cumulative IPC: 1.08607 (Simulation time: 0 hr 5 min 39 sec) 
Heartbeat CPU  0 instructions:  152000000 cycles:   98327958 heartbeat IPC: 1.24065 cumulative IPC: 1.08868 (Simulation time: 0 hr 5 min 41 sec) 
Heartbeat CPU  0 instructions:  153000002 cycles:   99135058 heartbeat IPC: 1.23901 cumulative IPC: 1.09118 (Simulation time: 0 hr 5 min 44 sec) 
Heartbeat CPU  0 instructions:  154000002 cycles:   99941510 heartbeat IPC: 1.24000 cumulative IPC: 1.09361 (Simulation time: 0 hr 5 min 46 sec) 
Heartbeat CPU  0 instructions:  155000001 cycles:  100748839 heartbeat IPC: 1.23865 cumulative IPC: 1.09594 (Simulation time: 0 hr 5 min 49 sec) 
Heartbeat CPU  0 instructions:  156000000 cycles:  101682970 heartbeat IPC: 1.07051 cumulative IPC: 1.09548 (Simulation time: 0 hr 5 min 52 sec) 
Heartbeat CPU  0 instructions:  157000000 cycles:  102590049 heartbeat IPC: 1.10244 cumulative IPC: 1.09560 (Simulation time: 0 hr 5 min 54 sec) 
Heartbeat CPU  0 instructions:  158000001 cycles:  103396983 heartbeat IPC: 1.23926 cumulative IPC: 1.09780 (Simulation time: 0 hr 5 min 57 sec) 
Heartbeat CPU  0 instructions:  159000003 cycles:  104202848 heartbeat IPC: 1.24091 cumulative IPC: 1.09995 (Simulation time: 0 hr 6 min 0 sec) 
Heartbeat CPU  0 instructions:  160000000 cycles:  105008830 heartbeat IPC: 1.24072 cumulative IPC: 1.10203 (Simulation time: 0 hr 6 min 2 sec) 
Heartbeat CPU  0 instructions:  161000001 cycles:  105874196 heartbeat IPC: 1.15558 cumulative IPC: 1.10287 (Simulation time: 0 hr 6 min 5 sec) 
Heartbeat CPU  0 instructions:  162000000 cycles:  106703337 heartbeat IPC: 1.20607 cumulative IPC: 1.10439 (Simulation time: 0 hr 6 min 7 sec) 
Heartbeat CPU  0 instructions:  163000003 cycles:  107510699 heartbeat IPC: 1.23861 cumulative IPC: 1.10629 (Simulation time: 0 hr 6 min 10 sec) 
Heartbeat CPU  0 instructions:  164000000 cycles:  108317380 heartbeat IPC: 1.23964 cumulative IPC: 1.10816 (Simulation time: 0 hr 6 min 13 sec) 
Heartbeat CPU  0 instructions:  165000000 cycles:  109123511 heartbeat IPC: 1.24049 cumulative IPC: 1.10998 (Simulation time: 0 hr 6 min 15 sec) 
Heartbeat CPU  0 instructions:  166000000 cycles:  109930209 heartbeat IPC: 1.23962 cumulative IPC: 1.11174 (Simulation time: 0 hr 6 min 18 sec) 
Heartbeat CPU  0 instructions:  167000003 cycles:  110735210 heartbeat IPC: 1.24224 cumulative IPC: 1.11349 (Simulation time: 0 hr 6 min 20 sec) 
Heartbeat CPU  0 instructions:  168000000 cycles:  111541776 heartbeat IPC: 1.23982 cumulative IPC: 1.11516 (Simulation time: 0 hr 6 min 23 sec) 
Heartbeat CPU  0 instructions:  169000003 cycles:  112348480 heartbeat IPC: 1.23962 cumulative IPC: 1.11678 (Simulation time: 0 hr 6 min 26 sec) 
Heartbeat CPU  0 instructions:  170000001 cycles:  113171775 heartbeat IPC: 1.21463 cumulative IPC: 1.11807 (Simulation time: 0 hr 6 min 28 sec) 
Heartbeat CPU  0 instructions:  171000002 cycles:  114014930 heartbeat IPC: 1.18602 cumulative IPC: 1.11897 (Simulation time: 0 hr 6 min 31 sec) 
Heartbeat CPU  0 instructions:  172000000 cycles:  114820093 heartbeat IPC: 1.24198 cumulative IPC: 1.12051 (Simulation time: 0 hr 6 min 33 sec) 
Heartbeat CPU  0 instructions:  173000002 cycles:  115626032 heartbeat IPC: 1.24079 cumulative IPC: 1.12200 (Simulation time: 0 hr 6 min 36 sec) 
Heartbeat CPU  0 instructions:  174000000 cycles:  116441317 heartbeat IPC: 1.22656 cumulative IPC: 1.12330 (Simulation time: 0 hr 6 min 38 sec) 
Heartbeat CPU  0 instructions:  175000001 cycles:  117259946 heartbeat IPC: 1.22156 cumulative IPC: 1.12450 (Simulation time: 0 hr 6 min 41 sec) 
Heartbeat CPU  0 instructions:  176000000 cycles:  118082094 heartbeat IPC: 1.21632 cumulative IPC: 1.12562 (Simulation time: 0 hr 6 min 44 sec) 
Heartbeat CPU  0 instructions:  177000000 cycles:  118888471 heartbeat IPC: 1.24011 cumulative IPC: 1.12697 (Simulation time: 0 hr 6 min 48 sec) 
Heartbeat CPU  0 instructions:  178000003 cycles:  119695723 heartbeat IPC: 1.23877 cumulative IPC: 1.12828 (Simulation time: 0 hr 6 min 51 sec) 
Heartbeat CPU  0 instructions:  179000000 cycles:  120502485 heartbeat IPC: 1.23952 cumulative IPC: 1.12956 (Simulation time: 0 hr 6 min 55 sec) 
Heartbeat CPU  0 instructions:  180000000 cycles:  121308368 heartbeat IPC: 1.24087 cumulative IPC: 1.13083 (Simulation time: 0 hr 6 min 59 sec) 
Heartbeat CPU  0 instructions:  181000003 cycles:  122114402 heartbeat IPC: 1.24065 cumulative IPC: 1.13207 (Simulation time: 0 hr 7 min 1 sec) 
Heartbeat CPU  0 instructions:  182000003 cycles:  122920824 heartbeat IPC: 1.24005 cumulative IPC: 1.13327 (Simulation time: 0 hr 7 min 4 sec) 
Heartbeat CPU  0 instructions:  183000003 cycles:  123726054 heartbeat IPC: 1.24188 cumulative IPC: 1.13447 (Simulation time: 0 hr 7 min 6 sec) 
Heartbeat CPU  0 instructions:  184000000 cycles:  124533943 heartbeat IPC: 1.23779 cumulative IPC: 1.13559 (Simulation time: 0 hr 7 min 9 sec) 
Heartbeat CPU  0 instructions:  185000002 cycles:  125373955 heartbeat IPC: 1.19046 cumulative IPC: 1.13621 (Simulation time: 0 hr 7 min 12 sec) 
Heartbeat CPU  0 instructions:  186000002 cycles:  126179533 heartbeat IPC: 1.24134 cumulative IPC: 1.13733 (Simulation time: 0 hr 7 min 14 sec) 
Heartbeat CPU  0 instructions:  187000001 cycles:  127019404 heartbeat IPC: 1.19066 cumulative IPC: 1.13792 (Simulation time: 0 hr 7 min 18 sec) 
Heartbeat CPU  0 instructions:  188000000 cycles:  127863651 heartbeat IPC: 1.18449 cumulative IPC: 1.13842 (Simulation time: 0 hr 7 min 20 sec) 
Heartbeat CPU  0 instructions:  189000000 cycles:  128708140 heartbeat IPC: 1.18415 cumulative IPC: 1.13892 (Simulation time: 0 hr 7 min 23 sec) 
Heartbeat CPU  0 instructions:  190000000 cycles:  129554635 heartbeat IPC: 1.18134 cumulative IPC: 1.13937 (Simulation time: 0 hr 7 min 25 sec) 
Heartbeat CPU  0 instructions:  191000003 cycles:  130401080 heartbeat IPC: 1.18142 cumulative IPC: 1.13982 (Simulation time: 0 hr 7 min 27 sec) 
Heartbeat CPU  0 instructions:  192000000 cycles:  131248771 heartbeat IPC: 1.17967 cumulative IPC: 1.14024 (Simulation time: 0 hr 7 min 30 sec) 
Heartbeat CPU  0 instructions:  193000003 cycles:  132095037 heartbeat IPC: 1.18167 cumulative IPC: 1.14067 (Simulation time: 0 hr 7 min 32 sec) 
Heartbeat CPU  0 instructions:  194000001 cycles:  132942873 heartbeat IPC: 1.17947 cumulative IPC: 1.14107 (Simulation time: 0 hr 7 min 35 sec) 
Heartbeat CPU  0 instructions:  195000003 cycles:  133790964 heartbeat IPC: 1.17912 cumulative IPC: 1.14145 (Simulation time: 0 hr 7 min 37 sec) 
Heartbeat CPU  0 instructions:  196000000 cycles:  134733710 heartbeat IPC: 1.06073 cumulative IPC: 1.14055 (Simulation time: 0 hr 7 min 39 sec) 
Heartbeat CPU  0 instructions:  197000000 cycles:  135808111 heartbeat IPC: 0.93075 cumulative IPC: 1.13791 (Simulation time: 0 hr 7 min 42 sec) 
Heartbeat CPU  0 instructions:  198000002 cycles:  136892164 heartbeat IPC: 0.92247 cumulative IPC: 1.13520 (Simulation time: 0 hr 7 min 44 sec) 
Heartbeat CPU  0 instructions:  199000001 cycles:  137922026 heartbeat IPC: 0.97100 cumulative IPC: 1.13327 (Simulation time: 0 hr 7 min 47 sec) 
Heartbeat CPU  0 instructions:  200000000 cycles:  138993054 heartbeat IPC: 0.93368 cumulative IPC: 1.13085 (Simulation time: 0 hr 7 min 49 sec) 
Heartbeat CPU  0 instructions:  201000001 cycles:  140031189 heartbeat IPC: 0.96327 cumulative IPC: 1.12890 (Simulation time: 0 hr 7 min 52 sec) 
Heartbeat CPU  0 instructions:  202000002 cycles:  141076895 heartbeat IPC: 0.95629 cumulative IPC: 1.12691 (Simulation time: 0 hr 7 min 54 sec) 
Heartbeat CPU  0 instructions:  203000002 cycles:  142104382 heartbeat IPC: 0.97325 cumulative IPC: 1.12518 (Simulation time: 0 hr 7 min 57 sec) 
Heartbeat CPU  0 instructions:  204000000 cycles:  143130184 heartbeat IPC: 0.97485 cumulative IPC: 1.12352 (Simulation time: 0 hr 7 min 59 sec) 
Heartbeat CPU  0 instructions:  205000003 cycles:  144329330 heartbeat IPC: 0.83393 cumulative IPC: 1.11981 (Simulation time: 0 hr 8 min 2 sec) 
Heartbeat CPU  0 instructions:  206000000 cycles:  145514092 heartbeat IPC: 0.84405 cumulative IPC: 1.11637 (Simulation time: 0 hr 8 min 4 sec) 
Heartbeat CPU  0 instructions:  207000001 cycles:  146669209 heartbeat IPC: 0.86571 cumulative IPC: 1.11336 (Simulation time: 0 hr 8 min 7 sec) 
Heartbeat CPU  0 instructions:  208000000 cycles:  147785275 heartbeat IPC: 0.89600 cumulative IPC: 1.11087 (Simulation time: 0 hr 8 min 9 sec) 
Heartbeat CPU  0 instructions:  209000001 cycles:  148961840 heartbeat IPC: 0.84993 cumulative IPC: 1.10775 (Simulation time: 0 hr 8 min 12 sec) 
Heartbeat CPU  0 instructions:  210000003 cycles:  150070825 heartbeat IPC: 0.90173 cumulative IPC: 1.10545 (Simulation time: 0 hr 8 min 15 sec) 
Heartbeat CPU  0 instructions:  211000001 cycles:  151255600 heartbeat IPC: 0.84404 cumulative IPC: 1.10237 (Simulation time: 0 hr 8 min 17 sec) 
Heartbeat CPU  0 instructions:  212000000 cycles:  152240531 heartbeat IPC: 1.01530 cumulative IPC: 1.10153 (Simulation time: 0 hr 8 min 20 sec) 
Heartbeat CPU  0 instructions:  213000001 cycles:  153593420 heartbeat IPC: 0.73916 cumulative IPC: 1.09677 (Simulation time: 0 hr 8 min 23 sec) 
Heartbeat CPU  0 instructions:  214000002 cycles:  155159658 heartbeat IPC: 0.63847 cumulative IPC: 1.08991 (Simulation time: 0 hr 8 min 26 sec) 
Heartbeat CPU  0 instructions:  215000002 cycles:  156735347 heartbeat IPC: 0.63464 cumulative IPC: 1.08315 (Simulation time: 0 hr 8 min 29 sec) 
Heartbeat CPU  0 instructions:  216000000 cycles:  158274789 heartbeat IPC: 0.64958 cumulative IPC: 1.07696 (Simulation time: 0 hr 8 min 32 sec) 
Heartbeat CPU  0 instructions:  217000002 cycles:  159752231 heartbeat IPC: 0.67685 cumulative IPC: 1.07154 (Simulation time: 0 hr 8 min 35 sec) 
Heartbeat CPU  0 instructions:  218000003 cycles:  161337467 heartbeat IPC: 0.63082 cumulative IPC: 1.06524 (Simulation time: 0 hr 8 min 39 sec) 
Heartbeat CPU  0 instructions:  219000000 cycles:  162786620 heartbeat IPC: 0.69006 cumulative IPC: 1.06039 (Simulation time: 0 hr 8 min 42 sec) 
Heartbeat CPU  0 instructions:  220000000 cycles:  164330647 heartbeat IPC: 0.64766 cumulative IPC: 1.05479 (Simulation time: 0 hr 8 min 45 sec) 
Heartbeat CPU  0 instructions:  221000000 cycles:  165794684 heartbeat IPC: 0.68304 cumulative IPC: 1.05007 (Simulation time: 0 hr 8 min 48 sec) 
Heartbeat CPU  0 instructions:  222000001 cycles:  167350986 heartbeat IPC: 0.64255 cumulative IPC: 1.04464 (Simulation time: 0 hr 8 min 52 sec) 
Heartbeat CPU  0 instructions:  223000000 cycles:  168770808 heartbeat IPC: 0.70431 cumulative IPC: 1.04055 (Simulation time: 0 hr 8 min 55 sec) 
Heartbeat CPU  0 instructions:  224000000 cycles:  170330871 heartbeat IPC: 0.64100 cumulative IPC: 1.03534 (Simulation time: 0 hr 8 min 58 sec) 
Heartbeat CPU  0 instructions:  225000002 cycles:  171818299 heartbeat IPC: 0.67230 cumulative IPC: 1.03089 (Simulation time: 0 hr 9 min 1 sec) 
Heartbeat CPU  0 instructions:  226000003 cycles:  173374270 heartbeat IPC: 0.64269 cumulative IPC: 1.02597 (Simulation time: 0 hr 9 min 4 sec) 
Heartbeat CPU  0 instructions:  227000002 cycles:  174862493 heartbeat IPC: 0.67194 cumulative IPC: 1.02173 (Simulation time: 0 hr 9 min 7 sec) 
Heartbeat CPU  0 instructions:  228000000 cycles:  176376068 heartbeat IPC: 0.66069 cumulative IPC: 1.01739 (Simulation time: 0 hr 9 min 10 sec) 
Heartbeat CPU  0 instructions:  229000002 cycles:  177855058 heartbeat IPC: 0.67614 cumulative IPC: 1.01342 (Simulation time: 0 hr 9 min 13 sec) 
Heartbeat CPU  0 instructions:  230000000 cycles:  179340903 heartbeat IPC: 0.67302 cumulative IPC: 1.00950 (Simulation time: 0 hr 9 min 17 sec) 
Heartbeat CPU  0 instructions:  231000001 cycles:  180855377 heartbeat IPC: 0.66030 cumulative IPC: 1.00544 (Simulation time: 0 hr 9 min 20 sec) 
Heartbeat CPU  0 instructions:  232000000 cycles:  182351633 heartbeat IPC: 0.66833 cumulative IPC: 1.00161 (Simulation time: 0 hr 9 min 23 sec) 
Heartbeat CPU  0 instructions:  233000001 cycles:  183856052 heartbeat IPC: 0.66471 cumulative IPC: 0.99781 (Simulation time: 0 hr 9 min 26 sec) 
Heartbeat CPU  0 instructions:  234000002 cycles:  185319865 heartbeat IPC: 0.68315 cumulative IPC: 0.99439 (Simulation time: 0 hr 9 min 29 sec) 
Heartbeat CPU  0 instructions:  235000002 cycles:  186856951 heartbeat IPC: 0.65058 cumulative IPC: 0.99051 (Simulation time: 0 hr 9 min 32 sec) 
Heartbeat CPU  0 instructions:  236000000 cycles:  188302482 heartbeat IPC: 0.69179 cumulative IPC: 0.98738 (Simulation time: 0 hr 9 min 35 sec) 
Heartbeat CPU  0 instructions:  237000003 cycles:  189853475 heartbeat IPC: 0.64475 cumulative IPC: 0.98356 (Simulation time: 0 hr 9 min 39 sec) 
Heartbeat CPU  0 instructions:  238000003 cycles:  191275399 heartbeat IPC: 0.70327 cumulative IPC: 0.98073 (Simulation time: 0 hr 9 min 42 sec) 
Heartbeat CPU  0 instructions:  239000000 cycles:  192819520 heartbeat IPC: 0.64762 cumulative IPC: 0.97711 (Simulation time: 0 hr 9 min 45 sec) 
Heartbeat CPU  0 instructions:  240000000 cycles:  194264948 heartbeat IPC: 0.69184 cumulative IPC: 0.97424 (Simulation time: 0 hr 9 min 48 sec) 
Heartbeat CPU  0 instructions:  241000000 cycles:  195820168 heartbeat IPC: 0.64300 cumulative IPC: 0.97070 (Simulation time: 0 hr 9 min 51 sec) 
Heartbeat CPU  0 instructions:  242000001 cycles:  197289677 heartbeat IPC: 0.68050 cumulative IPC: 0.96779 (Simulation time: 0 hr 9 min 55 sec) 
Heartbeat CPU  0 instructions:  243000000 cycles:  198825219 heartbeat IPC: 0.65124 cumulative IPC: 0.96451 (Simulation time: 0 hr 9 min 58 sec) 
Heartbeat CPU  0 instructions:  244000000 cycles:  200285054 heartbeat IPC: 0.68501 cumulative IPC: 0.96179 (Simulation time: 0 hr 10 min 1 sec) 
Heartbeat CPU  0 instructions:  245000002 cycles:  201805869 heartbeat IPC: 0.65754 cumulative IPC: 0.95873 (Simulation time: 0 hr 10 min 4 sec) 
Heartbeat CPU  0 instructions:  246000003 cycles:  203279093 heartbeat IPC: 0.67878 cumulative IPC: 0.95603 (Simulation time: 0 hr 10 min 7 sec) 
Heartbeat CPU  0 instructions:  247000003 cycles:  204792266 heartbeat IPC: 0.66086 cumulative IPC: 0.95313 (Simulation time: 0 hr 10 min 10 sec) 
Heartbeat CPU  0 instructions:  248000000 cycles:  206336318 heartbeat IPC: 0.64764 cumulative IPC: 0.95010 (Simulation time: 0 hr 10 min 14 sec) 
Heartbeat CPU  0 instructions:  249000003 cycles:  207890473 heartbeat IPC: 0.64344 cumulative IPC: 0.94707 (Simulation time: 0 hr 10 min 17 sec) 
Heartbeat CPU  0 instructions:  250000000 cycles:  209442525 heartbeat IPC: 0.64431 cumulative IPC: 0.94412 (Simulation time: 0 hr 10 min 20 sec) 
Heartbeat CPU  0 instructions:  251000000 cycles:  210660494 heartbeat IPC: 0.82104 cumulative IPC: 0.94318 (Simulation time: 0 hr 10 min 23 sec) 
Heartbeat CPU  0 instructions:  252000000 cycles:  211486494 heartbeat IPC: 1.21065 cumulative IPC: 0.94455 (Simulation time: 0 hr 10 min 25 sec) 
Heartbeat CPU  0 instructions:  253000002 cycles:  212317485 heartbeat IPC: 1.20338 cumulative IPC: 0.94588 (Simulation time: 0 hr 10 min 28 sec) 
Heartbeat CPU  0 instructions:  254000003 cycles:  213148857 heartbeat IPC: 1.20283 cumulative IPC: 0.94720 (Simulation time: 0 hr 10 min 30 sec) 
Heartbeat CPU  0 instructions:  255000000 cycles:  213982619 heartbeat IPC: 1.19938 cumulative IPC: 0.94848 (Simulation time: 0 hr 10 min 33 sec) 
Heartbeat CPU  0 instructions:  256000000 cycles:  214813680 heartbeat IPC: 1.20328 cumulative IPC: 0.94977 (Simulation time: 0 hr 10 min 35 sec) 
Heartbeat CPU  0 instructions:  257000000 cycles:  215638568 heartbeat IPC: 1.21229 cumulative IPC: 0.95108 (Simulation time: 0 hr 10 min 38 sec) 
Heartbeat CPU  0 instructions:  258000002 cycles:  216464853 heartbeat IPC: 1.21024 cumulative IPC: 0.95238 (Simulation time: 0 hr 10 min 41 sec) 
Heartbeat CPU  0 instructions:  259000000 cycles:  217296304 heartbeat IPC: 1.20271 cumulative IPC: 0.95362 (Simulation time: 0 hr 10 min 43 sec) 
Heartbeat CPU  0 instructions:  260000000 cycles:  218125976 heartbeat IPC: 1.20530 cumulative IPC: 0.95487 (Simulation time: 0 hr 10 min 46 sec) 
Heartbeat CPU  0 instructions:  261000001 cycles:  218955833 heartbeat IPC: 1.20503 cumulative IPC: 0.95610 (Simulation time: 0 hr 10 min 48 sec) 
Heartbeat CPU  0 instructions:  262000000 cycles:  219844472 heartbeat IPC: 1.12532 cumulative IPC: 0.95699 (Simulation time: 0 hr 10 min 51 sec) 
Heartbeat CPU  0 instructions:  263000002 cycles:  220746487 heartbeat IPC: 1.10863 cumulative IPC: 0.95779 (Simulation time: 0 hr 10 min 53 sec) 
Heartbeat CPU  0 instructions:  264000000 cycles:  221644083 heartbeat IPC: 1.11408 cumulative IPC: 0.95861 (Simulation time: 0 hr 10 min 56 sec) 
Heartbeat CPU  0 instructions:  265000002 cycles:  222542402 heartbeat IPC: 1.11319 cumulative IPC: 0.95942 (Simulation time: 0 hr 10 min 58 sec) 
Heartbeat CPU  0 instructions:  266000000 cycles:  223477112 heartbeat IPC: 1.06985 cumulative IPC: 0.96002 (Simulation time: 0 hr 11 min 1 sec) 
Heartbeat CPU  0 instructions:  267000000 cycles:  224370570 heartbeat IPC: 1.11925 cumulative IPC: 0.96084 (Simulation time: 0 hr 11 min 3 sec) 
Heartbeat CPU  0 instructions:  268000000 cycles:  225260887 heartbeat IPC: 1.12320 cumulative IPC: 0.96166 (Simulation time: 0 hr 11 min 6 sec) 
Heartbeat CPU  0 instructions:  269000000 cycles:  226134391 heartbeat IPC: 1.14481 cumulative IPC: 0.96258 (Simulation time: 0 hr 11 min 9 sec) 
Heartbeat CPU  0 instructions:  270000003 cycles:  227012829 heartbeat IPC: 1.13839 cumulative IPC: 0.96345 (Simulation time: 0 hr 11 min 11 sec) 
Heartbeat CPU  0 instructions:  271000001 cycles:  227880465 heartbeat IPC: 1.15255 cumulative IPC: 0.96438 (Simulation time: 0 hr 11 min 14 sec) 
Heartbeat CPU  0 instructions:  272000000 cycles:  228755142 heartbeat IPC: 1.14328 cumulative IPC: 0.96525 (Simulation time: 0 hr 11 min 16 sec) 
Heartbeat CPU  0 instructions:  273000000 cycles:  229679600 heartbeat IPC: 1.08171 cumulative IPC: 0.96586 (Simulation time: 0 hr 11 min 19 sec) 
Heartbeat CPU  0 instructions:  274000001 cycles:  230562177 heartbeat IPC: 1.13305 cumulative IPC: 0.96668 (Simulation time: 0 hr 11 min 21 sec) 
Heartbeat CPU  0 instructions:  275000000 cycles:  231461244 heartbeat IPC: 1.11226 cumulative IPC: 0.96740 (Simulation time: 0 hr 11 min 24 sec) 
Heartbeat CPU  0 instructions:  276000000 cycles:  232358861 heartbeat IPC: 1.11406 cumulative IPC: 0.96812 (Simulation time: 0 hr 11 min 26 sec) 
Heartbeat CPU  0 instructions:  277000002 cycles:  233268729 heartbeat IPC: 1.09906 cumulative IPC: 0.96878 (Simulation time: 0 hr 11 min 29 sec) 
Heartbeat CPU  0 instructions:  278000002 cycles:  234126871 heartbeat IPC: 1.16531 cumulative IPC: 0.96969 (Simulation time: 0 hr 11 min 31 sec) 
Heartbeat CPU  0 instructions:  279000000 cycles:  235010288 heartbeat IPC: 1.13197 cumulative IPC: 0.97047 (Simulation time: 0 hr 11 min 34 sec) 
Heartbeat CPU  0 instructions:  280000000 cycles:  235892293 heartbeat IPC: 1.13378 cumulative IPC: 0.97125 (Simulation time: 0 hr 11 min 36 sec) 
Heartbeat CPU  0 instructions:  281000002 cycles:  236758686 heartbeat IPC: 1.15421 cumulative IPC: 0.97210 (Simulation time: 0 hr 11 min 39 sec) 
Heartbeat CPU  0 instructions:  282000002 cycles:  237639493 heartbeat IPC: 1.13532 cumulative IPC: 0.97287 (Simulation time: 0 hr 11 min 41 sec) 
Heartbeat CPU  0 instructions:  283000001 cycles:  238557933 heartbeat IPC: 1.08880 cumulative IPC: 0.97343 (Simulation time: 0 hr 11 min 44 sec) 
Heartbeat CPU  0 instructions:  284000000 cycles:  239463338 heartbeat IPC: 1.10448 cumulative IPC: 0.97406 (Simulation time: 0 hr 11 min 46 sec) 
Heartbeat CPU  0 instructions:  285000003 cycles:  240371544 heartbeat IPC: 1.10108 cumulative IPC: 0.97467 (Simulation time: 0 hr 11 min 49 sec) 
Heartbeat CPU  0 instructions:  286000003 cycles:  241256076 heartbeat IPC: 1.13054 cumulative IPC: 0.97539 (Simulation time: 0 hr 11 min 52 sec) 
Heartbeat CPU  0 instructions:  287000003 cycles:  242156479 heartbeat IPC: 1.11061 cumulative IPC: 0.97603 (Simulation time: 0 hr 11 min 54 sec) 
Heartbeat CPU  0 instructions:  288000000 cycles:  243058826 heartbeat IPC: 1.10822 cumulative IPC: 0.97665 (Simulation time: 0 hr 11 min 57 sec) 
Heartbeat CPU  0 instructions:  289000001 cycles:  243952456 heartbeat IPC: 1.11903 cumulative IPC: 0.97731 (Simulation time: 0 hr 12 min 0 sec) 
Heartbeat CPU  0 instructions:  290000003 cycles:  244838357 heartbeat IPC: 1.12880 cumulative IPC: 0.97800 (Simulation time: 0 hr 12 min 2 sec) 
Heartbeat CPU  0 instructions:  291000003 cycles:  245705377 heartbeat IPC: 1.15338 cumulative IPC: 0.97878 (Simulation time: 0 hr 12 min 5 sec) 
Heartbeat CPU  0 instructions:  292000000 cycles:  246593362 heartbeat IPC: 1.12614 cumulative IPC: 0.97944 (Simulation time: 0 hr 12 min 7 sec) 
Heartbeat CPU  0 instructions:  293000002 cycles:  247503213 heartbeat IPC: 1.09908 cumulative IPC: 0.98000 (Simulation time: 0 hr 12 min 10 sec) 
Heartbeat CPU  0 instructions:  294000002 cycles:  248428261 heartbeat IPC: 1.08103 cumulative IPC: 0.98047 (Simulation time: 0 hr 12 min 13 sec) 
Heartbeat CPU  0 instructions:  295000001 cycles:  249341884 heartbeat IPC: 1.09454 cumulative IPC: 0.98099 (Simulation time: 0 hr 12 min 15 sec) 
Heartbeat CPU  0 instructions:  296000000 cycles:  250255761 heartbeat IPC: 1.09424 cumulative IPC: 0.98151 (Simulation time: 0 hr 12 min 18 sec) 
Heartbeat CPU  0 instructions:  297000003 cycles:  251153909 heartbeat IPC: 1.11341 cumulative IPC: 0.98210 (Simulation time: 0 hr 12 min 20 sec) 
Heartbeat CPU  0 instructions:  298000002 cycles:  252055925 heartbeat IPC: 1.10863 cumulative IPC: 0.98267 (Simulation time: 0 hr 12 min 23 sec) 
Heartbeat CPU  0 instructions:  299000003 cycles:  252969321 heartbeat IPC: 1.09482 cumulative IPC: 0.98317 (Simulation time: 0 hr 12 min 25 sec) 
Heartbeat CPU  0 instructions:  300000000 cycles:  253866483 heartbeat IPC: 1.11462 cumulative IPC: 0.98375 (Simulation time: 0 hr 12 min 28 sec) 
Heartbeat CPU  0 instructions:  301000000 cycles:  254754270 heartbeat IPC: 1.12640 cumulative IPC: 0.98438 (Simulation time: 0 hr 12 min 30 sec) 
Heartbeat CPU  0 instructions:  302000003 cycles:  255638219 heartbeat IPC: 1.13129 cumulative IPC: 0.98501 (Simulation time: 0 hr 12 min 33 sec) 
Heartbeat CPU  0 instructions:  303000002 cycles:  256530888 heartbeat IPC: 1.12023 cumulative IPC: 0.98559 (Simulation time: 0 hr 12 min 35 sec) 
Heartbeat CPU  0 instructions:  304000000 cycles:  257432192 heartbeat IPC: 1.10950 cumulative IPC: 0.98613 (Simulation time: 0 hr 12 min 38 sec) 
Heartbeat CPU  0 instructions:  305000003 cycles:  258337600 heartbeat IPC: 1.10448 cumulative IPC: 0.98665 (Simulation time: 0 hr 12 min 40 sec) 
Heartbeat CPU  0 instructions:  306000001 cycles:  259244962 heartbeat IPC: 1.10209 cumulative IPC: 0.98715 (Simulation time: 0 hr 12 min 43 sec) 
Heartbeat CPU  0 instructions:  307000001 cycles:  260153182 heartbeat IPC: 1.10105 cumulative IPC: 0.98765 (Simulation time: 0 hr 12 min 46 sec) 
Heartbeat CPU  0 instructions:  308000000 cycles:  261060283 heartbeat IPC: 1.10241 cumulative IPC: 0.98814 (Simulation time: 0 hr 12 min 48 sec) 
Heartbeat CPU  0 instructions:  309000001 cycles:  261995092 heartbeat IPC: 1.06974 cumulative IPC: 0.98850 (Simulation time: 0 hr 12 min 51 sec) 
Heartbeat CPU  0 instructions:  310000000 cycles:  262891137 heartbeat IPC: 1.11601 cumulative IPC: 0.98904 (Simulation time: 0 hr 12 min 53 sec) 
Heartbeat CPU  0 instructions:  311000000 cycles:  263789397 heartbeat IPC: 1.11326 cumulative IPC: 0.98956 (Simulation time: 0 hr 12 min 56 sec) 
Heartbeat CPU  0 instructions:  312000000 cycles:  264658441 heartbeat IPC: 1.15069 cumulative IPC: 0.99022 (Simulation time: 0 hr 12 min 58 sec) 
Heartbeat CPU  0 instructions:  313000003 cycles:  265544010 heartbeat IPC: 1.12922 cumulative IPC: 0.99079 (Simulation time: 0 hr 13 min 1 sec) 
Heartbeat CPU  0 instructions:  314000001 cycles:  266453479 heartbeat IPC: 1.09954 cumulative IPC: 0.99125 (Simulation time: 0 hr 13 min 4 sec) 
Heartbeat CPU  0 instructions:  315000000 cycles:  267362528 heartbeat IPC: 1.10005 cumulative IPC: 0.99170 (Simulation time: 0 hr 13 min 6 sec) 
Heartbeat CPU  0 instructions:  316000000 cycles:  268274800 heartbeat IPC: 1.09616 cumulative IPC: 0.99214 (Simulation time: 0 hr 13 min 9 sec) 
Heartbeat CPU  0 instructions:  317000003 cycles:  269173179 heartbeat IPC: 1.11312 cumulative IPC: 0.99264 (Simulation time: 0 hr 13 min 11 sec) 
Heartbeat CPU  0 instructions:  318000002 cycles:  270088980 heartbeat IPC: 1.09194 cumulative IPC: 0.99305 (Simulation time: 0 hr 13 min 14 sec) 
Heartbeat CPU  0 instructions:  319000002 cycles:  271014637 heartbeat IPC: 1.08031 cumulative IPC: 0.99342 (Simulation time: 0 hr 13 min 16 sec) 
Heartbeat CPU  0 instructions:  320000000 cycles:  271927637 heartbeat IPC: 1.09529 cumulative IPC: 0.99384 (Simulation time: 0 hr 13 min 19 sec) 
Heartbeat CPU  0 instructions:  321000002 cycles:  272813552 heartbeat IPC: 1.12878 cumulative IPC: 0.99438 (Simulation time: 0 hr 13 min 22 sec) 
Heartbeat CPU  0 instructions:  322000002 cycles:  273704828 heartbeat IPC: 1.12199 cumulative IPC: 0.99489 (Simulation time: 0 hr 13 min 24 sec) 
Heartbeat CPU  0 instructions:  323000002 cycles:  274586332 heartbeat IPC: 1.13442 cumulative IPC: 0.99544 (Simulation time: 0 hr 13 min 27 sec) 
Heartbeat CPU  0 instructions:  324000000 cycles:  275473740 heartbeat IPC: 1.12688 cumulative IPC: 0.99595 (Simulation time: 0 hr 13 min 29 sec) 
Heartbeat CPU  0 instructions:  325000002 cycles:  276418925 heartbeat IPC: 1.05800 cumulative IPC: 0.99621 (Simulation time: 0 hr 13 min 32 sec) 
Heartbeat CPU  0 instructions:  326000000 cycles:  277322292 heartbeat IPC: 1.10697 cumulative IPC: 0.99666 (Simulation time: 0 hr 13 min 34 sec) 
Heartbeat CPU  0 instructions:  327000002 cycles:  278236653 heartbeat IPC: 1.09366 cumulative IPC: 0.99704 (Simulation time: 0 hr 13 min 37 sec) 
Heartbeat CPU  0 instructions:  328000000 cycles:  279132087 heartbeat IPC: 1.11677 cumulative IPC: 0.99751 (Simulation time: 0 hr 13 min 39 sec) 
Heartbeat CPU  0 instructions:  329000001 cycles:  280066407 heartbeat IPC: 1.07030 cumulative IPC: 0.99781 (Simulation time: 0 hr 13 min 42 sec) 
Heartbeat CPU  0 instructions:  330000001 cycles:  280983364 heartbeat IPC: 1.09056 cumulative IPC: 0.99818 (Simulation time: 0 hr 13 min 45 sec) 
Heartbeat CPU  0 instructions:  331000001 cycles:  281883805 heartbeat IPC: 1.11057 cumulative IPC: 0.99862 (Simulation time: 0 hr 13 min 47 sec) 
Heartbeat CPU  0 instructions:  332000000 cycles:  282750797 heartbeat IPC: 1.15341 cumulative IPC: 0.99919 (Simulation time: 0 hr 13 min 50 sec) 
Heartbeat CPU  0 instructions:  333000001 cycles:  283635285 heartbeat IPC: 1.13060 cumulative IPC: 0.99969 (Simulation time: 0 hr 13 min 52 sec) 
Heartbeat CPU  0 instructions:  334000003 cycles:  284515004 heartbeat IPC: 1.13673 cumulative IPC: 1.00021 (Simulation time: 0 hr 13 min 55 sec) 
Heartbeat CPU  0 instructions:  335000002 cycles:  285443763 heartbeat IPC: 1.07670 cumulative IPC: 1.00051 (Simulation time: 0 hr 13 min 57 sec) 
Heartbeat CPU  0 instructions:  336000000 cycles:  286353396 heartbeat IPC: 1.09934 cumulative IPC: 1.00089 (Simulation time: 0 hr 14 min 0 sec) 
Heartbeat CPU  0 instructions:  337000002 cycles:  287262601 heartbeat IPC: 1.09986 cumulative IPC: 1.00127 (Simulation time: 0 hr 14 min 2 sec) 
Heartbeat CPU  0 instructions:  338000002 cycles:  288166251 heartbeat IPC: 1.10662 cumulative IPC: 1.00167 (Simulation time: 0 hr 14 min 5 sec) 
Heartbeat CPU  0 instructions:  339000002 cycles:  289068938 heartbeat IPC: 1.10780 cumulative IPC: 1.00207 (Simulation time: 0 hr 14 min 7 sec) 
Heartbeat CPU  0 instructions:  340000000 cycles:  289971755 heartbeat IPC: 1.10764 cumulative IPC: 1.00247 (Simulation time: 0 hr 14 min 10 sec) 
Heartbeat CPU  0 instructions:  341000001 cycles:  290859911 heartbeat IPC: 1.12593 cumulative IPC: 1.00293 (Simulation time: 0 hr 14 min 13 sec) 
Heartbeat CPU  0 instructions:  342000003 cycles:  291734065 heartbeat IPC: 1.14397 cumulative IPC: 1.00344 (Simulation time: 0 hr 14 min 15 sec) 
Heartbeat CPU  0 instructions:  343000003 cycles:  292616142 heartbeat IPC: 1.13369 cumulative IPC: 1.00392 (Simulation time: 0 hr 14 min 18 sec) 
Heartbeat CPU  0 instructions:  344000000 cycles:  293507684 heartbeat IPC: 1.12165 cumulative IPC: 1.00435 (Simulation time: 0 hr 14 min 20 sec) 
Heartbeat CPU  0 instructions:  345000002 cycles:  294393763 heartbeat IPC: 1.12857 cumulative IPC: 1.00480 (Simulation time: 0 hr 14 min 23 sec) 
Heartbeat CPU  0 instructions:  346000003 cycles:  295304596 heartbeat IPC: 1.09790 cumulative IPC: 1.00515 (Simulation time: 0 hr 14 min 25 sec) 
Heartbeat CPU  0 instructions:  347000003 cycles:  296220946 heartbeat IPC: 1.09129 cumulative IPC: 1.00547 (Simulation time: 0 hr 14 min 28 sec) 
Heartbeat CPU  0 instructions:  348000000 cycles:  297117589 heartbeat IPC: 1.11527 cumulative IPC: 1.00587 (Simulation time: 0 hr 14 min 30 sec) 
Heartbeat CPU  0 instructions:  349000000 cycles:  298020349 heartbeat IPC: 1.10771 cumulative IPC: 1.00624 (Simulation time: 0 hr 14 min 33 sec) 
Heartbeat CPU  0 instructions:  350000003 cycles:  298908828 heartbeat IPC: 1.12552 cumulative IPC: 1.00666 (Simulation time: 0 hr 14 min 35 sec) 
Heartbeat CPU  0 instructions:  351000002 cycles:  299818125 heartbeat IPC: 1.09975 cumulative IPC: 1.00700 (Simulation time: 0 hr 14 min 38 sec) 
Heartbeat CPU  0 instructions:  352000000 cycles:  300722974 heartbeat IPC: 1.10515 cumulative IPC: 1.00736 (Simulation time: 0 hr 14 min 40 sec) 
Heartbeat CPU  0 instructions:  353000003 cycles:  301606044 heartbeat IPC: 1.13242 cumulative IPC: 1.00780 (Simulation time: 0 hr 14 min 43 sec) 
Heartbeat CPU  0 instructions:  354000003 cycles:  302496171 heartbeat IPC: 1.12344 cumulative IPC: 1.00821 (Simulation time: 0 hr 14 min 46 sec) 
Heartbeat CPU  0 instructions:  355000000 cycles:  303368553 heartbeat IPC: 1.14628 cumulative IPC: 1.00868 (Simulation time: 0 hr 14 min 48 sec) 
Heartbeat CPU  0 instructions:  356000000 cycles:  304281717 heartbeat IPC: 1.09509 cumulative IPC: 1.00899 (Simulation time: 0 hr 14 min 51 sec) 
Heartbeat CPU  0 instructions:  357000001 cycles:  305210340 heartbeat IPC: 1.07686 cumulative IPC: 1.00924 (Simulation time: 0 hr 14 min 53 sec) 
Heartbeat CPU  0 instructions:  358000003 cycles:  306140296 heartbeat IPC: 1.07532 cumulative IPC: 1.00948 (Simulation time: 0 hr 14 min 56 sec) 
Heartbeat CPU  0 instructions:  359000000 cycles:  307058003 heartbeat IPC: 1.08967 cumulative IPC: 1.00977 (Simulation time: 0 hr 14 min 58 sec) 
Heartbeat CPU  0 instructions:  360000000 cycles:  307979570 heartbeat IPC: 1.08511 cumulative IPC: 1.01004 (Simulation time: 0 hr 15 min 1 sec) 
Heartbeat CPU  0 instructions:  361000002 cycles:  308891358 heartbeat IPC: 1.09675 cumulative IPC: 1.01035 (Simulation time: 0 hr 15 min 3 sec) 
Heartbeat CPU  0 instructions:  362000002 cycles:  309782580 heartbeat IPC: 1.12205 cumulative IPC: 1.01073 (Simulation time: 0 hr 15 min 6 sec) 
Heartbeat CPU  0 instructions:  363000002 cycles:  310677793 heartbeat IPC: 1.11705 cumulative IPC: 1.01110 (Simulation time: 0 hr 15 min 8 sec) 
Heartbeat CPU  0 instructions:  364000000 cycles:  311558296 heartbeat IPC: 1.13571 cumulative IPC: 1.01152 (Simulation time: 0 hr 15 min 11 sec) 
Heartbeat CPU  0 instructions:  365000001 cycles:  312420716 heartbeat IPC: 1.15953 cumulative IPC: 1.01200 (Simulation time: 0 hr 15 min 13 sec) 
Heartbeat CPU  0 instructions:  366000001 cycles:  313303553 heartbeat IPC: 1.13271 cumulative IPC: 1.01241 (Simulation time: 0 hr 15 min 16 sec) 
Heartbeat CPU  0 instructions:  367000003 cycles:  314228280 heartbeat IPC: 1.08140 cumulative IPC: 1.01265 (Simulation time: 0 hr 15 min 18 sec) 
Heartbeat CPU  0 instructions:  368000000 cycles:  315167283 heartbeat IPC: 1.06496 cumulative IPC: 1.01284 (Simulation time: 0 hr 15 min 21 sec) 
Heartbeat CPU  0 instructions:  369000001 cycles:  316089582 heartbeat IPC: 1.08425 cumulative IPC: 1.01308 (Simulation time: 0 hr 15 min 23 sec) 
Heartbeat CPU  0 instructions:  370000002 cycles:  316985228 heartbeat IPC: 1.11651 cumulative IPC: 1.01343 (Simulation time: 0 hr 15 min 26 sec) 
Heartbeat CPU  0 instructions:  371000002 cycles:  317901285 heartbeat IPC: 1.09164 cumulative IPC: 1.01370 (Simulation time: 0 hr 15 min 28 sec) 
Heartbeat CPU  0 instructions:  372000000 cycles:  318799956 heartbeat IPC: 1.11275 cumulative IPC: 1.01403 (Simulation time: 0 hr 15 min 31 sec) 
Heartbeat CPU  0 instructions:  373000002 cycles:  319683542 heartbeat IPC: 1.13175 cumulative IPC: 1.01442 (Simulation time: 0 hr 15 min 34 sec) 
Heartbeat CPU  0 instructions:  374000001 cycles:  320562139 heartbeat IPC: 1.13818 cumulative IPC: 1.01482 (Simulation time: 0 hr 15 min 36 sec) 
Heartbeat CPU  0 instructions:  375000000 cycles:  321430965 heartbeat IPC: 1.15098 cumulative IPC: 1.01526 (Simulation time: 0 hr 15 min 39 sec) 
Heartbeat CPU  0 instructions:  376000000 cycles:  322305196 heartbeat IPC: 1.14386 cumulative IPC: 1.01567 (Simulation time: 0 hr 15 min 41 sec) 
Heartbeat CPU  0 instructions:  377000002 cycles:  323238966 heartbeat IPC: 1.07093 cumulative IPC: 1.01586 (Simulation time: 0 hr 15 min 44 sec) 
Heartbeat CPU  0 instructions:  378000000 cycles:  324149847 heartbeat IPC: 1.09784 cumulative IPC: 1.01613 (Simulation time: 0 hr 15 min 46 sec) 
Heartbeat CPU  0 instructions:  379000000 cycles:  325073810 heartbeat IPC: 1.08229 cumulative IPC: 1.01636 (Simulation time: 0 hr 15 min 49 sec) 
Heartbeat CPU  0 instructions:  380000000 cycles:  325987988 heartbeat IPC: 1.09388 cumulative IPC: 1.01661 (Simulation time: 0 hr 15 min 51 sec) 
Heartbeat CPU  0 instructions:  381000002 cycles:  326884567 heartbeat IPC: 1.11535 cumulative IPC: 1.01693 (Simulation time: 0 hr 15 min 54 sec) 
Heartbeat CPU  0 instructions:  382000000 cycles:  327800662 heartbeat IPC: 1.09159 cumulative IPC: 1.01718 (Simulation time: 0 hr 15 min 56 sec) 
Heartbeat CPU  0 instructions:  383000000 cycles:  328710273 heartbeat IPC: 1.09937 cumulative IPC: 1.01745 (Simulation time: 0 hr 15 min 59 sec) 
Heartbeat CPU  0 instructions:  384000000 cycles:  329594733 heartbeat IPC: 1.13063 cumulative IPC: 1.01781 (Simulation time: 0 hr 16 min 2 sec) 
Heartbeat CPU  0 instructions:  385000001 cycles:  330486206 heartbeat IPC: 1.12174 cumulative IPC: 1.01814 (Simulation time: 0 hr 16 min 4 sec) 
Heartbeat CPU  0 instructions:  386000002 cycles:  331365474 heartbeat IPC: 1.13731 cumulative IPC: 1.01851 (Simulation time: 0 hr 16 min 7 sec) 
Heartbeat CPU  0 instructions:  387000000 cycles:  332288605 heartbeat IPC: 1.08327 cumulative IPC: 1.01872 (Simulation time: 0 hr 16 min 9 sec) 
Heartbeat CPU  0 instructions:  388000000 cycles:  333219393 heartbeat IPC: 1.07436 cumulative IPC: 1.01891 (Simulation time: 0 hr 16 min 12 sec) 
Heartbeat CPU  0 instructions:  389000003 cycles:  334157391 heartbeat IPC: 1.06610 cumulative IPC: 1.01906 (Simulation time: 0 hr 16 min 14 sec) 
Heartbeat CPU  0 instructions:  390000003 cycles:  335104135 heartbeat IPC: 1.05625 cumulative IPC: 1.01919 (Simulation time: 0 hr 16 min 17 sec) 
Heartbeat CPU  0 instructions:  391000002 cycles:  336027991 heartbeat IPC: 1.08242 cumulative IPC: 1.01939 (Simulation time: 0 hr 16 min 19 sec) 
Heartbeat CPU  0 instructions:  392000000 cycles:  336941027 heartbeat IPC: 1.09524 cumulative IPC: 1.01963 (Simulation time: 0 hr 16 min 22 sec) 
Heartbeat CPU  0 instructions:  393000003 cycles:  337885870 heartbeat IPC: 1.05838 cumulative IPC: 1.01976 (Simulation time: 0 hr 16 min 24 sec) 
Heartbeat CPU  0 instructions:  394000003 cycles:  338785423 heartbeat IPC: 1.11166 cumulative IPC: 1.02005 (Simulation time: 0 hr 16 min 27 sec) 
Heartbeat CPU  0 instructions:  395000003 cycles:  339731923 heartbeat IPC: 1.05652 cumulative IPC: 1.02017 (Simulation time: 0 hr 16 min 29 sec) 
Heartbeat CPU  0 instructions:  396000000 cycles:  340621138 heartbeat IPC: 1.12458 cumulative IPC: 1.02049 (Simulation time: 0 hr 16 min 32 sec) 
Heartbeat CPU  0 instructions:  397000001 cycles:  341540125 heartbeat IPC: 1.08816 cumulative IPC: 1.02070 (Simulation time: 0 hr 16 min 34 sec) 
Heartbeat CPU  0 instructions:  398000001 cycles:  342347437 heartbeat IPC: 1.23868 cumulative IPC: 1.02130 (Simulation time: 0 hr 16 min 36 sec) 
Heartbeat CPU  0 instructions:  399000000 cycles:  343296114 heartbeat IPC: 1.05410 cumulative IPC: 1.02141 (Simulation time: 0 hr 16 min 39 sec) 
Heartbeat CPU  0 instructions:  400000000 cycles:  344246689 heartbeat IPC: 1.05199 cumulative IPC: 1.02151 (Simulation time: 0 hr 16 min 42 sec) 
Heartbeat CPU  0 instructions:  401000001 cycles:  345195936 heartbeat IPC: 1.05347 cumulative IPC: 1.02161 (Simulation time: 0 hr 16 min 44 sec) 
Heartbeat CPU  0 instructions:  402000003 cycles:  346145609 heartbeat IPC: 1.05300 cumulative IPC: 1.02171 (Simulation time: 0 hr 16 min 47 sec) 
Heartbeat CPU  0 instructions:  403000000 cycles:  347095006 heartbeat IPC: 1.05330 cumulative IPC: 1.02181 (Simulation time: 0 hr 16 min 50 sec) 
Heartbeat CPU  0 instructions:  404000000 cycles:  348045342 heartbeat IPC: 1.05226 cumulative IPC: 1.02191 (Simulation time: 0 hr 16 min 52 sec) 
Heartbeat CPU  0 instructions:  405000003 cycles:  348994425 heartbeat IPC: 1.05365 cumulative IPC: 1.02201 (Simulation time: 0 hr 16 min 55 sec) 
Heartbeat CPU  0 instructions:  406000003 cycles:  349944455 heartbeat IPC: 1.05260 cumulative IPC: 1.02211 (Simulation time: 0 hr 16 min 58 sec) 
Heartbeat CPU  0 instructions:  407000000 cycles:  350893177 heartbeat IPC: 1.05405 cumulative IPC: 1.02221 (Simulation time: 0 hr 17 min 0 sec) 
Heartbeat CPU  0 instructions:  408000000 cycles:  351843566 heartbeat IPC: 1.05220 cumulative IPC: 1.02231 (Simulation time: 0 hr 17 min 3 sec) 
Heartbeat CPU  0 instructions:  409000002 cycles:  352790857 heartbeat IPC: 1.05564 cumulative IPC: 1.02241 (Simulation time: 0 hr 17 min 6 sec) 
Heartbeat CPU  0 instructions:  410000002 cycles:  353739277 heartbeat IPC: 1.05439 cumulative IPC: 1.02251 (Simulation time: 0 hr 17 min 8 sec) 
Heartbeat CPU  0 instructions:  411000000 cycles:  354690424 heartbeat IPC: 1.05136 cumulative IPC: 1.02260 (Simulation time: 0 hr 17 min 11 sec) 
Heartbeat CPU  0 instructions:  412000000 cycles:  355641359 heartbeat IPC: 1.05160 cumulative IPC: 1.02269 (Simulation time: 0 hr 17 min 13 sec) 
Heartbeat CPU  0 instructions:  413000001 cycles:  356591416 heartbeat IPC: 1.05257 cumulative IPC: 1.02278 (Simulation time: 0 hr 17 min 16 sec) 
Heartbeat CPU  0 instructions:  414000000 cycles:  357540795 heartbeat IPC: 1.05332 cumulative IPC: 1.02288 (Simulation time: 0 hr 17 min 19 sec) 
Heartbeat CPU  0 instructions:  415000002 cycles:  358490846 heartbeat IPC: 1.05258 cumulative IPC: 1.02297 (Simulation time: 0 hr 17 min 21 sec) 
Heartbeat CPU  0 instructions:  416000000 cycles:  359440172 heartbeat IPC: 1.05338 cumulative IPC: 1.02306 (Simulation time: 0 hr 17 min 24 sec) 
Heartbeat CPU  0 instructions:  417000001 cycles:  360389957 heartbeat IPC: 1.05287 cumulative IPC: 1.02315 (Simulation time: 0 hr 17 min 26 sec) 
Heartbeat CPU  0 instructions:  418000002 cycles:  361338884 heartbeat IPC: 1.05382 cumulative IPC: 1.02325 (Simulation time: 0 hr 17 min 29 sec) 
Heartbeat CPU  0 instructions:  419000003 cycles:  362287217 heartbeat IPC: 1.05448 cumulative IPC: 1.02334 (Simulation time: 0 hr 17 min 32 sec) 
Heartbeat CPU  0 instructions:  420000000 cycles:  363236743 heartbeat IPC: 1.05315 cumulative IPC: 1.02343 (Simulation time: 0 hr 17 min 34 sec) 
Heartbeat CPU  0 instructions:  421000002 cycles:  364185572 heartbeat IPC: 1.05393 cumulative IPC: 1.02353 (Simulation time: 0 hr 17 min 37 sec) 
Heartbeat CPU  0 instructions:  422000000 cycles:  365135448 heartbeat IPC: 1.05277 cumulative IPC: 1.02361 (Simulation time: 0 hr 17 min 39 sec) 
Heartbeat CPU  0 instructions:  423000003 cycles:  366084303 heartbeat IPC: 1.05391 cumulative IPC: 1.02371 (Simulation time: 0 hr 17 min 42 sec) 
Heartbeat CPU  0 instructions:  424000000 cycles:  367033632 heartbeat IPC: 1.05337 cumulative IPC: 1.02379 (Simulation time: 0 hr 17 min 45 sec) 
Heartbeat CPU  0 instructions:  425000000 cycles:  367982524 heartbeat IPC: 1.05386 cumulative IPC: 1.02388 (Simulation time: 0 hr 17 min 47 sec) 
Heartbeat CPU  0 instructions:  426000000 cycles:  368932218 heartbeat IPC: 1.05297 cumulative IPC: 1.02397 (Simulation time: 0 hr 17 min 50 sec) 
Heartbeat CPU  0 instructions:  427000003 cycles:  369880787 heartbeat IPC: 1.05422 cumulative IPC: 1.02406 (Simulation time: 0 hr 17 min 53 sec) 
Heartbeat CPU  0 instructions:  428000000 cycles:  370830131 heartbeat IPC: 1.05336 cumulative IPC: 1.02415 (Simulation time: 0 hr 17 min 55 sec) 
Heartbeat CPU  0 instructions:  429000000 cycles:  371779038 heartbeat IPC: 1.05384 cumulative IPC: 1.02424 (Simulation time: 0 hr 17 min 58 sec) 
Heartbeat CPU  0 instructions:  430000003 cycles:  372727866 heartbeat IPC: 1.05393 cumulative IPC: 1.02432 (Simulation time: 0 hr 18 min 1 sec) 
Heartbeat CPU  0 instructions:  431000003 cycles:  373676923 heartbeat IPC: 1.05368 cumulative IPC: 1.02441 (Simulation time: 0 hr 18 min 3 sec) 
Heartbeat CPU  0 instructions:  432000000 cycles:  374625746 heartbeat IPC: 1.05393 cumulative IPC: 1.02450 (Simulation time: 0 hr 18 min 6 sec) 
Heartbeat CPU  0 instructions:  433000001 cycles:  375575454 heartbeat IPC: 1.05296 cumulative IPC: 1.02458 (Simulation time: 0 hr 18 min 9 sec) 
Heartbeat CPU  0 instructions:  434000003 cycles:  376524827 heartbeat IPC: 1.05333 cumulative IPC: 1.02466 (Simulation time: 0 hr 18 min 11 sec) 
Heartbeat CPU  0 instructions:  435000001 cycles:  377474093 heartbeat IPC: 1.05344 cumulative IPC: 1.02475 (Simulation time: 0 hr 18 min 14 sec) 
Heartbeat CPU  0 instructions:  436000000 cycles:  378422570 heartbeat IPC: 1.05432 cumulative IPC: 1.02483 (Simulation time: 0 hr 18 min 16 sec) 
Heartbeat CPU  0 instructions:  437000000 cycles:  379372701 heartbeat IPC: 1.05249 cumulative IPC: 1.02491 (Simulation time: 0 hr 18 min 19 sec) 
Heartbeat CPU  0 instructions:  438000001 cycles:  380321698 heartbeat IPC: 1.05375 cumulative IPC: 1.02499 (Simulation time: 0 hr 18 min 22 sec) 
Heartbeat CPU  0 instructions:  439000002 cycles:  381270059 heartbeat IPC: 1.05445 cumulative IPC: 1.02508 (Simulation time: 0 hr 18 min 24 sec) 
Heartbeat CPU  0 instructions:  440000000 cycles:  382220806 heartbeat IPC: 1.05180 cumulative IPC: 1.02516 (Simulation time: 0 hr 18 min 27 sec) 
Heartbeat CPU  0 instructions:  441000001 cycles:  383169603 heartbeat IPC: 1.05397 cumulative IPC: 1.02524 (Simulation time: 0 hr 18 min 30 sec) 
Heartbeat CPU  0 instructions:  442000001 cycles:  384119211 heartbeat IPC: 1.05307 cumulative IPC: 1.02532 (Simulation time: 0 hr 18 min 32 sec) 
Heartbeat CPU  0 instructions:  443000002 cycles:  385067816 heartbeat IPC: 1.05418 cumulative IPC: 1.02540 (Simulation time: 0 hr 18 min 35 sec) 
Heartbeat CPU  0 instructions:  444000000 cycles:  386018509 heartbeat IPC: 1.05186 cumulative IPC: 1.02547 (Simulation time: 0 hr 18 min 37 sec) 
Heartbeat CPU  0 instructions:  445000001 cycles:  386967751 heartbeat IPC: 1.05347 cumulative IPC: 1.02555 (Simulation time: 0 hr 18 min 40 sec) 
Heartbeat CPU  0 instructions:  446000001 cycles:  387917039 heartbeat IPC: 1.05342 cumulative IPC: 1.02563 (Simulation time: 0 hr 18 min 43 sec) 
Heartbeat CPU  0 instructions:  447000002 cycles:  388865420 heartbeat IPC: 1.05443 cumulative IPC: 1.02571 (Simulation time: 0 hr 18 min 45 sec) 
Heartbeat CPU  0 instructions:  448000000 cycles:  389816207 heartbeat IPC: 1.05176 cumulative IPC: 1.02578 (Simulation time: 0 hr 18 min 48 sec) 
Heartbeat CPU  0 instructions:  449000003 cycles:  390764923 heartbeat IPC: 1.05406 cumulative IPC: 1.02586 (Simulation time: 0 hr 18 min 50 sec) 
Heartbeat CPU  0 instructions:  450000002 cycles:  391713464 heartbeat IPC: 1.05425 cumulative IPC: 1.02594 (Simulation time: 0 hr 18 min 53 sec) 
Heartbeat CPU  0 instructions:  451000000 cycles:  392663546 heartbeat IPC: 1.05254 cumulative IPC: 1.02602 (Simulation time: 0 hr 18 min 55 sec) 
Heartbeat CPU  0 instructions:  452000000 cycles:  393612233 heartbeat IPC: 1.05409 cumulative IPC: 1.02609 (Simulation time: 0 hr 18 min 58 sec) 
Heartbeat CPU  0 instructions:  453000003 cycles:  394561861 heartbeat IPC: 1.05305 cumulative IPC: 1.02617 (Simulation time: 0 hr 19 min 1 sec) 
Heartbeat CPU  0 instructions:  454000000 cycles:  395511274 heartbeat IPC: 1.05328 cumulative IPC: 1.02624 (Simulation time: 0 hr 19 min 3 sec) 
Heartbeat CPU  0 instructions:  455000002 cycles:  396461383 heartbeat IPC: 1.05251 cumulative IPC: 1.02632 (Simulation time: 0 hr 19 min 6 sec) 
Heartbeat CPU  0 instructions:  456000000 cycles:  397410109 heartbeat IPC: 1.05404 cumulative IPC: 1.02639 (Simulation time: 0 hr 19 min 9 sec) 
Heartbeat CPU  0 instructions:  457000000 cycles:  398359784 heartbeat IPC: 1.05299 cumulative IPC: 1.02646 (Simulation time: 0 hr 19 min 11 sec) 
Heartbeat CPU  0 instructions:  458000002 cycles:  399309620 heartbeat IPC: 1.05282 cumulative IPC: 1.02654 (Simulation time: 0 hr 19 min 14 sec) 
Heartbeat CPU  0 instructions:  459000003 cycles:  400258373 heartbeat IPC: 1.05402 cumulative IPC: 1.02661 (Simulation time: 0 hr 19 min 16 sec) 
Heartbeat CPU  0 instructions:  460000000 cycles:  401179241 heartbeat IPC: 1.08593 cumulative IPC: 1.02677 (Simulation time: 0 hr 19 min 19 sec) 
Heartbeat CPU  0 instructions:  461000000 cycles:  402015240 heartbeat IPC: 1.19617 cumulative IPC: 1.02717 (Simulation time: 0 hr 19 min 21 sec) 
Heartbeat CPU  0 instructions:  462000000 cycles:  402852656 heartbeat IPC: 1.19415 cumulative IPC: 1.02757 (Simulation time: 0 hr 19 min 24 sec) 
Heartbeat CPU  0 instructions:  463000001 cycles:  403684448 heartbeat IPC: 1.20222 cumulative IPC: 1.02798 (Simulation time: 0 hr 19 min 26 sec) 
Heartbeat CPU  0 instructions:  464000000 cycles:  404517592 heartbeat IPC: 1.20027 cumulative IPC: 1.02838 (Simulation time: 0 hr 19 min 29 sec) 
Heartbeat CPU  0 instructions:  465000002 cycles:  405354554 heartbeat IPC: 1.19480 cumulative IPC: 1.02878 (Simulation time: 0 hr 19 min 31 sec) 
Heartbeat CPU  0 instructions:  466000000 cycles:  406191496 heartbeat IPC: 1.19482 cumulative IPC: 1.02917 (Simulation time: 0 hr 19 min 33 sec) 
Heartbeat CPU  0 instructions:  467000001 cycles:  407024150 heartbeat IPC: 1.20098 cumulative IPC: 1.02957 (Simulation time: 0 hr 19 min 36 sec) 
Heartbeat CPU  0 instructions:  468000000 cycles:  407859006 heartbeat IPC: 1.19781 cumulative IPC: 1.02996 (Simulation time: 0 hr 19 min 38 sec) 
Heartbeat CPU  0 instructions:  469000003 cycles:  408714666 heartbeat IPC: 1.16869 cumulative IPC: 1.03029 (Simulation time: 0 hr 19 min 41 sec) 
Heartbeat CPU  0 instructions:  470000001 cycles:  409740534 heartbeat IPC: 0.97478 cumulative IPC: 1.03013 (Simulation time: 0 hr 19 min 43 sec) 
Heartbeat CPU  0 instructions:  471000001 cycles:  410818488 heartbeat IPC: 0.92768 cumulative IPC: 1.02983 (Simulation time: 0 hr 19 min 45 sec) 
Heartbeat CPU  0 instructions:  472000000 cycles:  411909479 heartbeat IPC: 0.91660 cumulative IPC: 1.02949 (Simulation time: 0 hr 19 min 48 sec) 
Heartbeat CPU  0 instructions:  473000002 cycles:  412920408 heartbeat IPC: 0.98919 cumulative IPC: 1.02937 (Simulation time: 0 hr 19 min 50 sec) 
Heartbeat CPU  0 instructions:  474000001 cycles:  413956374 heartbeat IPC: 0.96528 cumulative IPC: 1.02919 (Simulation time: 0 hr 19 min 53 sec) 
Heartbeat CPU  0 instructions:  475000002 cycles:  415017984 heartbeat IPC: 0.94197 cumulative IPC: 1.02894 (Simulation time: 0 hr 19 min 55 sec) 
Heartbeat CPU  0 instructions:  476000000 cycles:  416065960 heartbeat IPC: 0.95422 cumulative IPC: 1.02872 (Simulation time: 0 hr 19 min 58 sec) 
Heartbeat CPU  0 instructions:  477000002 cycles:  417014721 heartbeat IPC: 1.05401 cumulative IPC: 1.02879 (Simulation time: 0 hr 20 min 0 sec) 
Heartbeat CPU  0 instructions:  478000000 cycles:  418201689 heartbeat IPC: 0.84248 cumulative IPC: 1.02819 (Simulation time: 0 hr 20 min 3 sec) 
Heartbeat CPU  0 instructions:  479000002 cycles:  419395790 heartbeat IPC: 0.83745 cumulative IPC: 1.02757 (Simulation time: 0 hr 20 min 5 sec) 
Heartbeat CPU  0 instructions:  480000000 cycles:  420578370 heartbeat IPC: 0.84561 cumulative IPC: 1.02699 (Simulation time: 0 hr 20 min 8 sec) 
Heartbeat CPU  0 instructions:  481000003 cycles:  421775200 heartbeat IPC: 0.83554 cumulative IPC: 1.02637 (Simulation time: 0 hr 20 min 10 sec) 
Heartbeat CPU  0 instructions:  482000003 cycles:  422908251 heartbeat IPC: 0.88257 cumulative IPC: 1.02593 (Simulation time: 0 hr 20 min 13 sec) 
Heartbeat CPU  0 instructions:  483000003 cycles:  424014853 heartbeat IPC: 0.90367 cumulative IPC: 1.02557 (Simulation time: 0 hr 20 min 15 sec) 
Heartbeat CPU  0 instructions:  484000000 cycles:  425197989 heartbeat IPC: 0.84521 cumulative IPC: 1.02500 (Simulation time: 0 hr 20 min 18 sec) 
Heartbeat CPU  0 instructions:  485000002 cycles:  426365665 heartbeat IPC: 0.85640 cumulative IPC: 1.02448 (Simulation time: 0 hr 20 min 20 sec) 
Heartbeat CPU  0 instructions:  486000000 cycles:  427399363 heartbeat IPC: 0.96740 cumulative IPC: 1.02432 (Simulation time: 0 hr 20 min 23 sec) 
Heartbeat CPU  0 instructions:  487000000 cycles:  428991710 heartbeat IPC: 0.62800 cumulative IPC: 1.02265 (Simulation time: 0 hr 20 min 26 sec) 
Heartbeat CPU  0 instructions:  488000000 cycles:  430566489 heartbeat IPC: 0.63501 cumulative IPC: 1.02105 (Simulation time: 0 hr 20 min 29 sec) 
Heartbeat CPU  0 instructions:  489000000 cycles:  432124469 heartbeat IPC: 0.64186 cumulative IPC: 1.01950 (Simulation time: 0 hr 20 min 32 sec) 
Heartbeat CPU  0 instructions:  490000003 cycles:  433610431 heartbeat IPC: 0.67297 cumulative IPC: 1.01815 (Simulation time: 0 hr 20 min 35 sec) 
Heartbeat CPU  0 instructions:  491000003 cycles:  435168278 heartbeat IPC: 0.64191 cumulative IPC: 1.01663 (Simulation time: 0 hr 20 min 39 sec) 
Heartbeat CPU  0 instructions:  492000000 cycles:  436697205 heartbeat IPC: 0.65405 cumulative IPC: 1.01519 (Simulation time: 0 hr 20 min 42 sec) 
Heartbeat CPU  0 instructions:  493000001 cycles:  438236339 heartbeat IPC: 0.64972 cumulative IPC: 1.01374 (Simulation time: 0 hr 20 min 45 sec) 
Heartbeat CPU  0 instructions:  494000000 cycles:  439749224 heartbeat IPC: 0.66099 cumulative IPC: 1.01237 (Simulation time: 0 hr 20 min 48 sec) 
Heartbeat CPU  0 instructions:  495000000 cycles:  441285024 heartbeat IPC: 0.65113 cumulative IPC: 1.01095 (Simulation time: 0 hr 20 min 51 sec) 
Heartbeat CPU  0 instructions:  496000000 cycles:  442794538 heartbeat IPC: 0.66246 cumulative IPC: 1.00961 (Simulation time: 0 hr 20 min 54 sec) 
Heartbeat CPU  0 instructions:  497000002 cycles:  444311158 heartbeat IPC: 0.65936 cumulative IPC: 1.00826 (Simulation time: 0 hr 20 min 57 sec) 
Heartbeat CPU  0 instructions:  498000001 cycles:  445881825 heartbeat IPC: 0.63667 cumulative IPC: 1.00678 (Simulation time: 0 hr 21 min 0 sec) 
Heartbeat CPU  0 instructions:  499000000 cycles:  447410959 heartbeat IPC: 0.65396 cumulative IPC: 1.00542 (Simulation time: 0 hr 21 min 3 sec) 
Heartbeat CPU  0 instructions:  500000000 cycles:  448946006 heartbeat IPC: 0.65145 cumulative IPC: 1.00406 (Simulation time: 0 hr 21 min 6 sec) 
Heartbeat CPU  0 instructions:  501000003 cycles:  450446831 heartbeat IPC: 0.66630 cumulative IPC: 1.00279 (Simulation time: 0 hr 21 min 10 sec) 
Heartbeat CPU  0 instructions:  502000002 cycles:  451974698 heartbeat IPC: 0.65451 cumulative IPC: 1.00147 (Simulation time: 0 hr 21 min 13 sec) 
Heartbeat CPU  0 instructions:  503000000 cycles:  453439564 heartbeat IPC: 0.68265 cumulative IPC: 1.00031 (Simulation time: 0 hr 21 min 16 sec) 
Heartbeat CPU  0 instructions:  504000000 cycles:  454983688 heartbeat IPC: 0.64762 cumulative IPC: 0.99896 (Simulation time: 0 hr 21 min 19 sec) 
Heartbeat CPU  0 instructions:  505000000 cycles:  456461146 heartbeat IPC: 0.67684 cumulative IPC: 0.99779 (Simulation time: 0 hr 21 min 22 sec) 
Heartbeat CPU  0 instructions:  506000003 cycles:  458023462 heartbeat IPC: 0.64008 cumulative IPC: 0.99642 (Simulation time: 0 hr 21 min 25 sec) 
Heartbeat CPU  0 instructions:  507000002 cycles:  459471334 heartbeat IPC: 0.69067 cumulative IPC: 0.99534 (Simulation time: 0 hr 21 min 28 sec) 
Heartbeat CPU  0 instructions:  508000000 cycles:  461033835 heartbeat IPC: 0.64000 cumulative IPC: 0.99398 (Simulation time: 0 hr 21 min 31 sec) 
Heartbeat CPU  0 instructions:  509000001 cycles:  462476146 heartbeat IPC: 0.69333 cumulative IPC: 0.99293 (Simulation time: 0 hr 21 min 34 sec) 
Heartbeat CPU  0 instructions:  510000000 cycles:  464037504 heartbeat IPC: 0.64047 cumulative IPC: 0.99160 (Simulation time: 0 hr 21 min 37 sec) 
Heartbeat CPU  0 instructions:  511000001 cycles:  465483370 heartbeat IPC: 0.69163 cumulative IPC: 0.99055 (Simulation time: 0 hr 21 min 40 sec) 
Heartbeat CPU  0 instructions:  512000000 cycles:  467037007 heartbeat IPC: 0.64365 cumulative IPC: 0.98926 (Simulation time: 0 hr 21 min 44 sec) 
Heartbeat CPU  0 instructions:  513000000 cycles:  468505448 heartbeat IPC: 0.68099 cumulative IPC: 0.98818 (Simulation time: 0 hr 21 min 47 sec) 
Heartbeat CPU  0 instructions:  514000001 cycles:  470059740 heartbeat IPC: 0.64338 cumulative IPC: 0.98690 (Simulation time: 0 hr 21 min 50 sec) 
Heartbeat CPU  0 instructions:  515000003 cycles:  471549151 heartbeat IPC: 0.67141 cumulative IPC: 0.98578 (Simulation time: 0 hr 21 min 53 sec) 
Heartbeat CPU  0 instructions:  516000000 cycles:  473083682 heartbeat IPC: 0.65166 cumulative IPC: 0.98457 (Simulation time: 0 hr 21 min 56 sec) 
Heartbeat CPU  0 instructions:  517000001 cycles:  474567150 heartbeat IPC: 0.67410 cumulative IPC: 0.98348 (Simulation time: 0 hr 21 min 59 sec) 
Heartbeat CPU  0 instructions:  518000001 cycles:  476080539 heartbeat IPC: 0.66077 cumulative IPC: 0.98234 (Simulation time: 0 hr 22 min 2 sec) 
Heartbeat CPU  0 instructions:  519000000 cycles:  477577446 heartbeat IPC: 0.66804 cumulative IPC: 0.98123 (Simulation time: 0 hr 22 min 5 sec) 
Heartbeat CPU  0 instructions:  520000000 cycles:  479084777 heartbeat IPC: 0.66342 cumulative IPC: 0.98012 (Simulation time: 0 hr 22 min 9 sec) 
Heartbeat CPU  0 instructions:  521000002 cycles:  480655141 heartbeat IPC: 0.63680 cumulative IPC: 0.97886 (Simulation time: 0 hr 22 min 12 sec) 
Heartbeat CPU  0 instructions:  522000002 cycles:  482219227 heartbeat IPC: 0.63935 cumulative IPC: 0.97763 (Simulation time: 0 hr 22 min 15 sec) 
Heartbeat CPU  0 instructions:  523000001 cycles:  483784310 heartbeat IPC: 0.63894 cumulative IPC: 0.97641 (Simulation time: 0 hr 22 min 18 sec) 
Heartbeat CPU  0 instructions:  524000000 cycles:  485026219 heartbeat IPC: 0.80521 cumulative IPC: 0.97592 (Simulation time: 0 hr 22 min 21 sec) 
Heartbeat CPU  0 instructions:  525000000 cycles:  485878353 heartbeat IPC: 1.17352 cumulative IPC: 0.97631 (Simulation time: 0 hr 22 min 23 sec) 
Heartbeat CPU  0 instructions:  526000001 cycles:  486733890 heartbeat IPC: 1.16886 cumulative IPC: 0.97668 (Simulation time: 0 hr 22 min 26 sec) 
Heartbeat CPU  0 instructions:  527000001 cycles:  487593736 heartbeat IPC: 1.16300 cumulative IPC: 0.97705 (Simulation time: 0 hr 22 min 28 sec) 
Heartbeat CPU  0 instructions:  528000000 cycles:  488452451 heartbeat IPC: 1.16453 cumulative IPC: 0.97742 (Simulation time: 0 hr 22 min 31 sec) 
Heartbeat CPU  0 instructions:  529000003 cycles:  489311075 heartbeat IPC: 1.16466 cumulative IPC: 0.97778 (Simulation time: 0 hr 22 min 33 sec) 
Heartbeat CPU  0 instructions:  530000002 cycles:  490157853 heartbeat IPC: 1.18095 cumulative IPC: 0.97818 (Simulation time: 0 hr 22 min 36 sec) 
Heartbeat CPU  0 instructions:  531000001 cycles:  491008230 heartbeat IPC: 1.17595 cumulative IPC: 0.97856 (Simulation time: 0 hr 22 min 38 sec) 
Heartbeat CPU  0 instructions:  532000000 cycles:  491855356 heartbeat IPC: 1.18046 cumulative IPC: 0.97894 (Simulation time: 0 hr 22 min 41 sec) 
Heartbeat CPU  0 instructions:  533000003 cycles:  492680717 heartbeat IPC: 1.21159 cumulative IPC: 0.97938 (Simulation time: 0 hr 22 min 43 sec) 
Heartbeat CPU  0 instructions:  534000001 cycles:  493508953 heartbeat IPC: 1.20738 cumulative IPC: 0.97981 (Simulation time: 0 hr 22 min 46 sec) 
Heartbeat CPU  0 instructions:  535000000 cycles:  494382291 heartbeat IPC: 1.14503 cumulative IPC: 0.98013 (Simulation time: 0 hr 22 min 48 sec) 
Heartbeat CPU  0 instructions:  536000000 cycles:  495284075 heartbeat IPC: 1.10891 cumulative IPC: 0.98039 (Simulation time: 0 hr 22 min 51 sec) 
Heartbeat CPU  0 instructions:  537000003 cycles:  496194093 heartbeat IPC: 1.09888 cumulative IPC: 0.98063 (Simulation time: 0 hr 22 min 54 sec) 
Heartbeat CPU  0 instructions:  538000003 cycles:  497084414 heartbeat IPC: 1.12319 cumulative IPC: 0.98092 (Simulation time: 0 hr 22 min 56 sec) 
Heartbeat CPU  0 instructions:  539000001 cycles:  497967727 heartbeat IPC: 1.13210 cumulative IPC: 0.98122 (Simulation time: 0 hr 22 min 59 sec) 
Heartbeat CPU  0 instructions:  540000000 cycles:  498857149 heartbeat IPC: 1.12432 cumulative IPC: 0.98150 (Simulation time: 0 hr 23 min 1 sec) 
Heartbeat CPU  0 instructions:  541000003 cycles:  499739429 heartbeat IPC: 1.13343 cumulative IPC: 0.98180 (Simulation time: 0 hr 23 min 4 sec) 
Heartbeat CPU  0 instructions:  542000000 cycles:  500635835 heartbeat IPC: 1.11556 cumulative IPC: 0.98207 (Simulation time: 0 hr 23 min 7 sec) 
Heartbeat CPU  0 instructions:  543000000 cycles:  501473321 heartbeat IPC: 1.19405 cumulative IPC: 0.98246 (Simulation time: 0 hr 23 min 9 sec) 
Heartbeat CPU  0 instructions:  544000000 cycles:  502302755 heartbeat IPC: 1.20564 cumulative IPC: 0.98287 (Simulation time: 0 hr 23 min 11 sec) 
Heartbeat CPU  0 instructions:  545000003 cycles:  503177024 heartbeat IPC: 1.14382 cumulative IPC: 0.98318 (Simulation time: 0 hr 23 min 14 sec) 
Heartbeat CPU  0 instructions:  546000002 cycles:  504069465 heartbeat IPC: 1.12052 cumulative IPC: 0.98345 (Simulation time: 0 hr 23 min 17 sec) 
Heartbeat CPU  0 instructions:  547000002 cycles:  505009577 heartbeat IPC: 1.06370 cumulative IPC: 0.98362 (Simulation time: 0 hr 23 min 19 sec) 
Heartbeat CPU  0 instructions:  548000000 cycles:  505939806 heartbeat IPC: 1.07500 cumulative IPC: 0.98380 (Simulation time: 0 hr 23 min 22 sec) 
Heartbeat CPU  0 instructions:  549000003 cycles:  506830384 heartbeat IPC: 1.12287 cumulative IPC: 0.98407 (Simulation time: 0 hr 23 min 24 sec) 
Heartbeat CPU  0 instructions:  550000000 cycles:  507725027 heartbeat IPC: 1.11776 cumulative IPC: 0.98434 (Simulation time: 0 hr 23 min 27 sec) 
Heartbeat CPU  0 instructions:  551000000 cycles:  508629660 heartbeat IPC: 1.10542 cumulative IPC: 0.98457 (Simulation time: 0 hr 23 min 29 sec) 
Heartbeat CPU  0 instructions:  552000000 cycles:  509522279 heartbeat IPC: 1.12030 cumulative IPC: 0.98484 (Simulation time: 0 hr 23 min 32 sec) 
Heartbeat CPU  0 instructions:  553000000 cycles:  510408345 heartbeat IPC: 1.12858 cumulative IPC: 0.98512 (Simulation time: 0 hr 23 min 34 sec) 
Heartbeat CPU  0 instructions:  554000000 cycles:  511236965 heartbeat IPC: 1.20683 cumulative IPC: 0.98551 (Simulation time: 0 hr 23 min 37 sec) 
Heartbeat CPU  0 instructions:  555000002 cycles:  512075624 heartbeat IPC: 1.19238 cumulative IPC: 0.98589 (Simulation time: 0 hr 23 min 39 sec) 
Heartbeat CPU  0 instructions:  556000000 cycles:  512995953 heartbeat IPC: 1.08657 cumulative IPC: 0.98609 (Simulation time: 0 hr 23 min 42 sec) 
Heartbeat CPU  0 instructions:  557000000 cycles:  513945661 heartbeat IPC: 1.05296 cumulative IPC: 0.98623 (Simulation time: 0 hr 23 min 45 sec) 
Heartbeat CPU  0 instructions:  558000000 cycles:  514880736 heartbeat IPC: 1.06943 cumulative IPC: 0.98640 (Simulation time: 0 hr 23 min 47 sec) 
Heartbeat CPU  0 instructions:  559000000 cycles:  515792322 heartbeat IPC: 1.09699 cumulative IPC: 0.98661 (Simulation time: 0 hr 23 min 50 sec) 
Heartbeat CPU  0 instructions:  560000000 cycles:  516724888 heartbeat IPC: 1.07231 cumulative IPC: 0.98678 (Simulation time: 0 hr 23 min 52 sec) 
Heartbeat CPU  0 instructions:  561000001 cycles:  517643117 heartbeat IPC: 1.08905 cumulative IPC: 0.98698 (Simulation time: 0 hr 23 min 55 sec) 
Heartbeat CPU  0 instructions:  562000003 cycles:  518550248 heartbeat IPC: 1.10238 cumulative IPC: 0.98721 (Simulation time: 0 hr 23 min 57 sec) 
Heartbeat CPU  0 instructions:  563000000 cycles:  519442963 heartbeat IPC: 1.12018 cumulative IPC: 0.98746 (Simulation time: 0 hr 24 min 0 sec) 
Heartbeat CPU  0 instructions:  564000000 cycles:  520278380 heartbeat IPC: 1.19701 cumulative IPC: 0.98783 (Simulation time: 0 hr 24 min 2 sec) 
Heartbeat CPU  0 instructions:  565000003 cycles:  521088666 heartbeat IPC: 1.23414 cumulative IPC: 0.98826 (Simulation time: 0 hr 24 min 5 sec) 
Heartbeat CPU  0 instructions:  566000003 cycles:  521999520 heartbeat IPC: 1.09787 cumulative IPC: 0.98847 (Simulation time: 0 hr 24 min 7 sec) 
Heartbeat CPU  0 instructions:  567000001 cycles:  522952131 heartbeat IPC: 1.04974 cumulative IPC: 0.98859 (Simulation time: 0 hr 24 min 10 sec) 
Heartbeat CPU  0 instructions:  568000000 cycles:  523886105 heartbeat IPC: 1.07069 cumulative IPC: 0.98876 (Simulation time: 0 hr 24 min 13 sec) 
Heartbeat CPU  0 instructions:  569000002 cycles:  524805506 heartbeat IPC: 1.08767 cumulative IPC: 0.98895 (Simulation time: 0 hr 24 min 15 sec) 
Heartbeat CPU  0 instructions:  570000000 cycles:  525739518 heartbeat IPC: 1.07065 cumulative IPC: 0.98911 (Simulation time: 0 hr 24 min 18 sec) 
Heartbeat CPU  0 instructions:  571000002 cycles:  526662364 heartbeat IPC: 1.08361 cumulative IPC: 0.98929 (Simulation time: 0 hr 24 min 20 sec) 
Heartbeat CPU  0 instructions:  572000000 cycles:  527562370 heartbeat IPC: 1.11110 cumulative IPC: 0.98952 (Simulation time: 0 hr 24 min 23 sec) 
Heartbeat CPU  0 instructions:  573000001 cycles:  528442774 heartbeat IPC: 1.13584 cumulative IPC: 0.98979 (Simulation time: 0 hr 24 min 25 sec) 
Heartbeat CPU  0 instructions:  574000003 cycles:  529305273 heartbeat IPC: 1.15942 cumulative IPC: 0.99010 (Simulation time: 0 hr 24 min 28 sec) 
Heartbeat CPU  0 instructions:  575000000 cycles:  530104760 heartbeat IPC: 1.25080 cumulative IPC: 0.99053 (Simulation time: 0 hr 24 min 30 sec) 
Heartbeat CPU  0 instructions:  576000000 cycles:  530958593 heartbeat IPC: 1.17119 cumulative IPC: 0.99085 (Simulation time: 0 hr 24 min 33 sec) 
Heartbeat CPU  0 instructions:  577000000 cycles:  531904578 heartbeat IPC: 1.05710 cumulative IPC: 0.99098 (Simulation time: 0 hr 24 min 36 sec) 
Heartbeat CPU  0 instructions:  578000002 cycles:  532859648 heartbeat IPC: 1.04705 cumulative IPC: 0.99109 (Simulation time: 0 hr 24 min 38 sec) 
Heartbeat CPU  0 instructions:  579000001 cycles:  533793307 heartbeat IPC: 1.07105 cumulative IPC: 0.99125 (Simulation time: 0 hr 24 min 41 sec) 
Heartbeat CPU  0 instructions:  580000000 cycles:  534733640 heartbeat IPC: 1.06345 cumulative IPC: 0.99139 (Simulation time: 0 hr 24 min 43 sec) 
Heartbeat CPU  0 instructions:  581000002 cycles:  535656692 heartbeat IPC: 1.08336 cumulative IPC: 0.99156 (Simulation time: 0 hr 24 min 46 sec) 
Heartbeat CPU  0 instructions:  582000000 cycles:  536572541 heartbeat IPC: 1.09188 cumulative IPC: 0.99175 (Simulation time: 0 hr 24 min 48 sec) 
Heartbeat CPU  0 instructions:  583000003 cycles:  537505845 heartbeat IPC: 1.07147 cumulative IPC: 0.99190 (Simulation time: 0 hr 24 min 51 sec) 
Heartbeat CPU  0 instructions:  584000000 cycles:  538394416 heartbeat IPC: 1.12540 cumulative IPC: 0.99215 (Simulation time: 0 hr 24 min 53 sec) 
Heartbeat CPU  0 instructions:  585000002 cycles:  539219810 heartbeat IPC: 1.21154 cumulative IPC: 0.99252 (Simulation time: 0 hr 24 min 56 sec) 
Heartbeat CPU  0 instructions:  586000003 cycles:  540038678 heartbeat IPC: 1.22120 cumulative IPC: 0.99290 (Simulation time: 0 hr 24 min 58 sec) 
Heartbeat CPU  0 instructions:  587000001 cycles:  540980219 heartbeat IPC: 1.06209 cumulative IPC: 0.99303 (Simulation time: 0 hr 25 min 1 sec) 
Heartbeat CPU  0 instructions:  588000000 cycles:  541929794 heartbeat IPC: 1.05310 cumulative IPC: 0.99315 (Simulation time: 0 hr 25 min 3 sec) 
Heartbeat CPU  0 instructions:  589000002 cycles:  542881016 heartbeat IPC: 1.05128 cumulative IPC: 0.99326 (Simulation time: 0 hr 25 min 6 sec) 
Heartbeat CPU  0 instructions:  590000001 cycles:  543808169 heartbeat IPC: 1.07857 cumulative IPC: 0.99342 (Simulation time: 0 hr 25 min 8 sec) 
Heartbeat CPU  0 instructions:  591000002 cycles:  544745719 heartbeat IPC: 1.06661 cumulative IPC: 0.99356 (Simulation time: 0 hr 25 min 11 sec) 
Heartbeat CPU  0 instructions:  592000000 cycles:  545662740 heartbeat IPC: 1.09049 cumulative IPC: 0.99374 (Simulation time: 0 hr 25 min 14 sec) 
Heartbeat CPU  0 instructions:  593000003 cycles:  546571743 heartbeat IPC: 1.10011 cumulative IPC: 0.99394 (Simulation time: 0 hr 25 min 16 sec) 
Heartbeat CPU  0 instructions:  594000000 cycles:  547480173 heartbeat IPC: 1.10080 cumulative IPC: 0.99413 (Simulation time: 0 hr 25 min 19 sec) 
Heartbeat CPU  0 instructions:  595000003 cycles:  548328485 heartbeat IPC: 1.17882 cumulative IPC: 0.99445 (Simulation time: 0 hr 25 min 21 sec) 
Heartbeat CPU  0 instructions:  596000000 cycles:  549139458 heartbeat IPC: 1.23308 cumulative IPC: 0.99483 (Simulation time: 0 hr 25 min 24 sec) 
Heartbeat CPU  0 instructions:  597000001 cycles:  549991376 heartbeat IPC: 1.17382 cumulative IPC: 0.99514 (Simulation time: 0 hr 25 min 26 sec) 
Heartbeat CPU  0 instructions:  598000002 cycles:  550957585 heartbeat IPC: 1.03497 cumulative IPC: 0.99522 (Simulation time: 0 hr 25 min 29 sec) 
Heartbeat CPU  0 instructions:  599000000 cycles:  551898382 heartbeat IPC: 1.06293 cumulative IPC: 0.99534 (Simulation time: 0 hr 25 min 31 sec) 
Heartbeat CPU  0 instructions:  600000000 cycles:  552825808 heartbeat IPC: 1.07825 cumulative IPC: 0.99550 (Simulation time: 0 hr 25 min 34 sec) 
Finished CPU 0 instructions: 500000001 cycles: 502262004 cumulative IPC: 0.99550 (Simulation time: 0 hr 25 min 34 sec) 

ChampSim completed all CPUs

[ROI Statistics]
Core_0_instructions 500000001
Core_0_cycles 502262004
Core_0_IPC 0.99550

Core_0_branch_prediction_accuracy 99.14585
Core_0_branch_MPKI 0.18961
Core_0_average_ROB_occupancy_at_mispredict 243.84539

Core_0_L1D_total_access 146328720
Core_0_L1D_total_hit 141477758
Core_0_L1D_total_miss 4850962
Core_0_L1D_loads 135637928
Core_0_L1D_load_hit 132177877
Core_0_L1D_load_miss 3460051
Core_0_L1D_RFOs 10690792
Core_0_L1D_RFO_hit 9299881
Core_0_L1D_RFO_miss 1390911
Core_0_L1D_prefetches 0
Core_0_L1D_prefetch_hit 0
Core_0_L1D_prefetch_miss 0
Core_0_L1D_writebacks 0
Core_0_L1D_writeback_hit 0
Core_0_L1D_writeback_miss 0
Core_0_L1D_prefetch_requested 0
Core_0_L1D_prefetch_dropped 0
Core_0_L1D_prefetch_issued 0
Core_0_L1D_prefetch_filled 0
Core_0_L1D_prefetch_useful 0
Core_0_L1D_prefetch_useless 0
Core_0_L1D_prefetch_late 0
Core_0_L1D_average_miss_latency 91.25746

Core_0_L1D_rq_access 196256208
Core_0_L1D_rq_forward 0
Core_0_L1D_rq_merged 59745435
Core_0_L1D_rq_to_cache 136510773
Core_0_L1D_rq_full 0

Core_0_L1D_wq_access 15647860
Core_0_L1D_wq_forward 0
Core_0_L1D_wq_merged 1
Core_0_L1D_wq_to_cache 15647859
Core_0_L1D_wq_full 91063

Core_0_L1D_pq_access 0
Core_0_L1D_pq_forward 0
Core_0_L1D_pq_merged 0
Core_0_L1D_pq_to_cache 0
Core_0_L1D_pq_full 0

Core_0_L1D_acc_epochs 534194
Core_0_L1D_acc_level_0 534194
Core_0_L1D_acc_level_1 0
Core_0_L1D_acc_level_2 0
Core_0_L1D_acc_level_3 0
Core_0_L1D_acc_level_4 0
Core_0_L1D_acc_level_5 0
Core_0_L1D_acc_level_6 0
Core_0_L1D_acc_level_7 0
Core_0_L1D_acc_level_8 0
Core_0_L1D_acc_level_9 0

Core_0_L1I_total_access 116399852
Core_0_L1I_total_hit 116399476
Core_0_L1I_total_miss 376
Core_0_L1I_loads 116399852
Core_0_L1I_load_hit 116399476
Core_0_L1I_load_miss 376
Core_0_L1I_RFOs 0
Core_0_L1I_RFO_hit 0
Core_0_L1I_RFO_miss 0
Core_0_L1I_prefetches 0
Core_0_L1I_prefetch_hit 0
Core_0_L1I_prefetch_miss 0
Core_0_L1I_writebacks 0
Core_0_L1I_writeback_hit 0
Core_0_L1I_writeback_miss 0
Core_0_L1I_prefetch_requested 0
Core_0_L1I_prefetch_dropped 0
Core_0_L1I_prefetch_issued 0
Core_0_L1I_prefetch_filled 0
Core_0_L1I_prefetch_useful 0
Core_0_L1I_prefetch_useless 0
Core_0_L1I_prefetch_late 0
Core_0_L1I_average_miss_latency 145.43617

Core_0_L1I_rq_access 500000000
Core_0_L1I_rq_forward 0
Core_0_L1I_rq_merged 383599556
Core_0_L1I_rq_to_cache 116400444
Core_0_L1I_rq_full 0

Core_0_L1I_wq_access 0
Core_0_L1I_wq_forward 0
Core_0_L1I_wq_merged 0
Core_0_L1I_wq_to_cache 0
Core_0_L1I_wq_full 0

Core_0_L1I_pq_access 0
Core_0_L1I_pq_forward 0
Core_0_L1I_pq_merged 0
Core_0_L1I_pq_to_cache 0
Core_0_L1I_pq_full 0

Core_0_L1I_acc_epochs 534194
Core_0_L1I_acc_level_0 534194
Core_0_L1I_acc_level_1 0
Core_0_L1I_acc_level_2 0
Core_0_L1I_acc_level_3 0
Core_0_L1I_acc_level_4 0
Core_0_L1I_acc_level_5 0
Core_0_L1I_acc_level_6 0
Core_0_L1I_acc_level_7 0
Core_0_L1I_acc_level_8 0
Core_0_L1I_acc_level_9 0

Core_0_L2C_total_access 8957134
Core_0_L2C_total_hit 5278983
Core_0_L2C_total_miss 3678151
Core_0_L2C_loads 3460395
Core_0_L2C_load_hit 3210356
Core_0_L2C_load_miss 250039
Core_0_L2C_RFOs 1390878
Core_0_L2C_RFO_hit 393159
Core_0_L2C_RFO_miss 997719
Core_0_L2C_prefetches 2447116
Core_0_L2C_prefetch_hit 17283
Core_0_L2C_prefetch_miss 2429833
Core_0_L2C_writebacks 1658745
Core_0_L2C_writeback_hit 1658185
Core_0_L2C_writeback_miss 560
Core_0_L2C_prefetch_requested 4463426
Core_0_L2C_prefetch_dropped 0
Core_0_L2C_prefetch_issued 4463426
Core_0_L2C_prefetch_filled 3248807
Core_0_L2C_prefetch_useful 3167817
Core_0_L2C_prefetch_useless 80293
Core_0_L2C_prefetch_late 1025
Core_0_L2C_average_miss_latency 258.39632

Core_0_L2C_rq_access 4851338
Core_0_L2C_rq_forward 0
Core_0_L2C_rq_merged 0
Core_0_L2C_rq_to_cache 4851273
Core_0_L2C_rq_full 0

Core_0_L2C_wq_access 1658745
Core_0_L2C_wq_forward 69
Core_0_L2C_wq_merged 0
Core_0_L2C_wq_to_cache 1658745
Core_0_L2C_wq_full 0

Core_0_L2C_pq_access 4463426
Core_0_L2C_pq_forward 0
Core_0_L2C_pq_merged 1879
Core_0_L2C_pq_to_cache 4461543
Core_0_L2C_pq_full 0

Core_0_L2C_acc_epochs 534194
Core_0_L2C_acc_level_0 59964
Core_0_L2C_acc_level_1 20227
Core_0_L2C_acc_level_2 18050
Core_0_L2C_acc_level_3 15112
Core_0_L2C_acc_level_4 17309
Core_0_L2C_acc_level_5 21905
Core_0_L2C_acc_level_6 20224
Core_0_L2C_acc_level_7 26297
Core_0_L2C_acc_level_8 38145
Core_0_L2C_acc_level_9 296961

Core_0_LLC_total_access 5453396
Core_0_LLC_total_hit 1211811
Core_0_LLC_total_miss 4241585
Core_0_LLC_loads 249046
Core_0_LLC_load_hit 55815
Core_0_LLC_load_miss 193231
Core_0_LLC_RFOs 997718
Core_0_LLC_RFO_hit 39806
Core_0_LLC_RFO_miss 957912
Core_0_LLC_prefetches 3097211
Core_0_LLC_prefetch_hit 763758
Core_0_LLC_prefetch_miss 2333453
Core_0_LLC_writebacks 1109421
Core_0_LLC_writeback_hit 352432
Core_0_LLC_writeback_miss 756989
Core_0_LLC_prefetch_requested 0
Core_0_LLC_prefetch_dropped 0
Core_0_LLC_prefetch_issued 0
Core_0_LLC_prefetch_filled 3023656
Core_0_LLC_prefetch_useful 89737
Core_0_LLC_prefetch_useless 2908877
Core_0_LLC_prefetch_late 110
Core_0_LLC_average_miss_latency 240.29522

Core_0_LLC_rq_access 1246764
Core_0_LLC_rq_forward 0
Core_0_LLC_rq_merged 0
Core_0_LLC_rq_to_cache 1246764
Core_0_LLC_rq_full 0

Core_0_LLC_wq_access 1109421
Core_0_LLC_wq_forward 0
Core_0_LLC_wq_merged 0
Core_0_LLC_wq_to_cache 1109421
Core_0_LLC_wq_full 0

Core_0_LLC_pq_access 4418014
Core_0_LLC_pq_forward 0
Core_0_LLC_pq_merged 104
Core_0_LLC_pq_to_cache 4417910
Core_0_LLC_pq_full 0

Core_0_LLC_acc_epochs 539869
Core_0_LLC_acc_level_0 510086
Core_0_LLC_acc_level_1 11461
Core_0_LLC_acc_level_2 5403
Core_0_LLC_acc_level_3 2826
Core_0_LLC_acc_level_4 1692
Core_0_LLC_acc_level_5 2167
Core_0_LLC_acc_level_6 1222
Core_0_LLC_acc_level_7 1047
Core_0_LLC_acc_level_8 756
Core_0_LLC_acc_level_9 3209

Core_0_major_page_fault 0
Core_0_minor_page_fault 19121

[MLOP] History of tracked zone:
IIIIIIIIIIIIIIIIIIIIIIIIIIIIIIIIIIIIIIIIIIIIIIIIIIIIIIIIIIIIIIII
IIIIIIIIIIIIIIIIIIIIIIIIIIIIIIIIIIIIIIIIIIIIIIIIIIA2222444444III
IIIIIIIIIIIIIIIIIIIIIIIIIIIIIIIIIIIIIIIIIIIIIIIIIIAA2222444444II
IIIIIIIIIIIIIIIIIIIIIIIIIIIIIIIIIIIIIIIIIIIIIIIIIIAAA2222444444I
IIIIIIIIIIIIIIIIIIIIIIIIIIIIIIIIIIIIIIIIIIIIIIIIIIAAAA2222444444
IIIIIIIIIIIIIIIIIIIIIIIIIIIIIIIIIIIIIIIIIIIIIIIIIIAAAAA222244444
IIIIIIIIIIIIIIIIIIIIIIIIIIIIIIIIIIIIIIIIIIIIIIIIIIAAAAAA22224444
IIIIIIIIIIIIIIIIIIIIIIIIIIIIIIIIIIIIIIIIIIIIIIIIIIAAAAAAA2222444
IIIIIIIIIIIIIIIIIIIIIIIIIIIIIIIIIIIIIIIIIIIIIIIIIIAAAAAAAA222244
IIIIIIIIIIIIIIIIIIIIIIIIIIIIIIIIIIIIIIIIIIIIIIIIIIAAAAAAAAA22224
IIIIIIIIIIIIIIIIIIIIIIIIIIIIIIIIIIIIIIIIIIIIIIIIIIAAAAAAAAAA2222
IIIIIIIIIIIIIIIIIIIIIIIIIIIIIIIIIIIIIIIIIIIIIIIIIIAAAAAAAAAAA222
IIIIIIIIIIIIIIIIIIIIIIIIIIIIIIIIIIIIIIIIIIIIIIIIIIAAAAAAAAAAAA22
IIIIIIIIIIIIIIIIIIIIIIIIIIIIIIIIIIIIIIIIIIIIIIIIIIAAAAAAAAAAAAA2
IIIIIIIIIIIIIIIIIIIIIIIIIIIIIIIIIIIIIIIIIIIIIIIIIIAAAAAAAAAAAAAA
IIIIIIIIIIIIIIIIIIIIIIIIIIIIIIIIIIIIIIIIIIIIIIIIIIAAAAAAAAAAAIAA
IIIIIIIIIIIIIIIIIIIIIIIIIIIIIIIIIIIIIIIIIIIIIIIIIIAAAAAAAAAAAIIA
IIIIIIIIIIIIIIIIIIIIIIIIIIIIIIIIIIIIIIIIIIIIIIIIIIAAAAAAAAAAAIII
IIIIIIIIIIIIIIIIIIIIIIIIIIIIIIIIIIIIIIIIIIIIIIIIIIAAAIAAAAAAAIII
IIIIIIIIIIIIIIIIIIIIIIIIIIIIIIIIIIIIIIIIIIIIIIIIIIAAAIIAAAAAAIII
IIIIIIIIIIIIIIIIIIIIIIIIIIIIIIIIIIIIIIIIIIIIIIIIIIAAAIIIAAAAAIII
IIIIIIIIIIIIIIIIIIIIIIIIIIIIIIIIIIIIIIIIIIIIIIIIIIAAAIIIIAAAAIII
IIIIIIIIIIIIIIIIIIIIIIIIIIIIIIIIIIIIIIIIIIIIIIIIIIAAAIIIIIAAAIII
IIIIIIIIIIIIIIIIIIIIIIIIIIIIIIIIIIIIIIIIIIIIIIIIIIAAAIIIIIIAAIII
IIIIIIIIIIIIIIIIIIIIIIIIIIIIIIIIIIIIIIIIIIIIIIIIIIAAAIIIIIIIAIII
IIIIIIIIIIIIIIIIIIIIIIIIIIIIIIIIIIIIIIIIIIIIIIIIIIAAAIIIIIIIIIII
IIIIIIIIIIIIIIIIIIIIIIIIIIIIIIIIIIIIIIIIIIIIIIIIIIAIAIIIIIIIIIII
IIIIIIIIIIIIIIIIIIIIIIIIIIIIIIIIIIIIIIIIIIIIIIIIIIIIAIIIIIIIIIII
IIIIIIIIIIIIIIIIIIIIIIIIIIIIIIIIIIIIIIIIIIIIIIIIIIIIIIIIIIIIIIII
[MLOP] Prefetch Degree Mean: 15.58775
[MLOP] Prefetch Degree SD: 1.80264
[MLOP] Max Score Left Mean (%): 67.22504
[MLOP] Max Score Left SD (%): 18.78590
[MLOP] Max Score Right Mean (%): 99.25782
[MLOP] Max Score Right SD (%): 2.90772

Channel_0_RQ_row_buffer_hit 1010066
Channel_0_RQ_row_buffer_miss 2474476
Channel_0_WQ_row_buffer_hit 359358
Channel_0_WQ_row_buffer_miss 713272
Channel_0_WQ_full 4486
Channel_0_dbus_congested 1470776

avg_congested_cycle 11

DRAM_bw_pochs 2159476
DRAM_bw_level_0 1764308
DRAM_bw_level_1 304062
DRAM_bw_level_2 43827
DRAM_bw_level_3 47279
