*************************************************
   ChampSim Multicore Out-of-Order Simulator
   Last compiled: Dec 11 2024 17:59:53
*************************************************
parsing config file: /home/functionmain/桌面/Pythia/config/spp_dev2.ini

trace_0 /home/functionmain/桌面/Pythia/traces/437.leslie3d-271B.champsimtrace.xz
adding L2C_PREFETCHER: SPP_dev2
Initialize SIGNATURE TABLE
ST_SET: 1
ST_WAY: 256
ST_TAG_BIT: 16
ST_TAG_MASK: ffff

Initialize PATTERN TABLE
PT_SET: 512
PT_WAY: 4
SIG_DELTA_BIT: 7
C_SIG_BIT: 4
C_DELTA_BIT: 4

Initialize PREFETCH FILTER
FILTER_SET: 1024
fill_threshold: 90
pf_threshold: 40

Initialize SHIP state
warmup_instructions 100000000
simulation_instructions 500000000
champsim_seed 220
measure_ipc 0
measure_ipc_epoch 1000
measure_dram_bw 1
measure_dram_bw_epoch 256
measure_cache_acc 1
measure_cache_acc_epoch 1024
l1d_perfect 0
l2c_perfect 0
llc_perfect 0
l1d_semi_perfect 0
l2c_semi_perfect 0
llc_semi_perfect 0
semi_perfect_cache_page_buffer_size 64

num_cpus 1
cpu_freq 4000
dram_io_freq 4800
page_size 4096
block_size 64
max_read_per_cycle 8
max_fill_per_cycle 1
dram_channels 1
log2_dram_channels 0
dram_ranks 1
dram_banks 8
dram_rows 65536
dram_columns 128
dram_row_size 8
dram_size 4096
dram_pages 1048576

fetch_width 6
decode_width 6
exec_width 4
lq_width 2
sq_width 2
retire_width 4
scheduler_size 128
branch_mispredict_penalty 20
rob_size 256
lq_size 72
sq_size 56
num_instr_destinations_sparc 4
num_instr_destinations 2
num_instr_sources 4

itlb_set 16
itlb_way 8
itlb_rq_size 16
itlb_wq_size 16
itlb_pq_size 0
itlb_mshr_size 8
itlb_latency 1

dtlb_set 16
dtlb_way 4
dtlb_rq_size 16
dtlb_wq_size 16
dtlb_pq_size 0
dtlb_mshr_size 8
dtlb_latency 1

stlb_set 128
stlb_way 12
stlb_rq_size 32
stlb_wq_size 32
stlb_pq_size 0
stlb_mshr_size 16
stlb_latency 8

l1i_size 32
l1i_set 64
l1i_way 8
l1i_rq_size 64
l1i_wq_size 64
l1i_pq_size 8
l1i_mshr_size 8
l1i_latency 1

l1d_size 32
l1d_set 64
l1d_way 8
l1d_rq_size 64
l1d_wq_size 64
l1d_pq_size 8
l1d_mshr_size 16
l1d_latency 4

l2c_size 256
l2c_set 512
l2c_way 8
l2c_rq_size 32
l2c_wq_size 32
l2c_pq_size 32
l2c_mshr_size 32
l2c_latency 10

llc_size 2048
llc_set 2048
llc_way 16
llc_rq_size 32
llc_wq_size 32
llc_pq_size 32
llc_mshr_size 64
llc_latency 20

dram_channel_width 8
dram_wq_size 64
dram_rq_size 64
tRP 15
tRCD 15
tCAS 12.5
dram_dbus_turn_around_time 30
dram_write_high_wm 56
dram_write_low_wm 48
min_dram_writes_per_switch 16
dram_mtps 4800
dram_dbus_return_time 6


Heartbeat CPU  0 instructions:    1000002 cycles:     515589 heartbeat IPC: 1.93953 cumulative IPC: 1.93953 (Simulation time: 0 hr 0 min 2 sec) 
Heartbeat CPU  0 instructions:    2000001 cycles:    1030387 heartbeat IPC: 1.94251 cumulative IPC: 1.94102 (Simulation time: 0 hr 0 min 4 sec) 
Heartbeat CPU  0 instructions:    3000003 cycles:    1545482 heartbeat IPC: 1.94139 cumulative IPC: 1.94114 (Simulation time: 0 hr 0 min 6 sec) 
Heartbeat CPU  0 instructions:    4000000 cycles:    2060505 heartbeat IPC: 1.94166 cumulative IPC: 1.94127 (Simulation time: 0 hr 0 min 8 sec) 
Heartbeat CPU  0 instructions:    5000001 cycles:    2575657 heartbeat IPC: 1.94118 cumulative IPC: 1.94125 (Simulation time: 0 hr 0 min 10 sec) 
Heartbeat CPU  0 instructions:    6000001 cycles:    3090725 heartbeat IPC: 1.94149 cumulative IPC: 1.94129 (Simulation time: 0 hr 0 min 12 sec) 
Heartbeat CPU  0 instructions:    7000003 cycles:    3606127 heartbeat IPC: 1.94024 cumulative IPC: 1.94114 (Simulation time: 0 hr 0 min 14 sec) 
Heartbeat CPU  0 instructions:    8000000 cycles:    4121352 heartbeat IPC: 1.94089 cumulative IPC: 1.94111 (Simulation time: 0 hr 0 min 16 sec) 
Heartbeat CPU  0 instructions:    9000000 cycles:    4636247 heartbeat IPC: 1.94214 cumulative IPC: 1.94123 (Simulation time: 0 hr 0 min 18 sec) 
Heartbeat CPU  0 instructions:   10000003 cycles:    5151433 heartbeat IPC: 1.94105 cumulative IPC: 1.94121 (Simulation time: 0 hr 0 min 20 sec) 
Heartbeat CPU  0 instructions:   11000000 cycles:    5666768 heartbeat IPC: 1.94048 cumulative IPC: 1.94114 (Simulation time: 0 hr 0 min 22 sec) 
Heartbeat CPU  0 instructions:   12000000 cycles:    6181757 heartbeat IPC: 1.94179 cumulative IPC: 1.94120 (Simulation time: 0 hr 0 min 24 sec) 
Heartbeat CPU  0 instructions:   13000001 cycles:    6696943 heartbeat IPC: 1.94105 cumulative IPC: 1.94118 (Simulation time: 0 hr 0 min 26 sec) 
Heartbeat CPU  0 instructions:   14000002 cycles:    7212402 heartbeat IPC: 1.94002 cumulative IPC: 1.94110 (Simulation time: 0 hr 0 min 28 sec) 
Heartbeat CPU  0 instructions:   15000000 cycles:    7727406 heartbeat IPC: 1.94173 cumulative IPC: 1.94114 (Simulation time: 0 hr 0 min 30 sec) 
Heartbeat CPU  0 instructions:   16000000 cycles:    8242610 heartbeat IPC: 1.94098 cumulative IPC: 1.94113 (Simulation time: 0 hr 0 min 32 sec) 
Heartbeat CPU  0 instructions:   17000003 cycles:    8758029 heartbeat IPC: 1.94017 cumulative IPC: 1.94108 (Simulation time: 0 hr 0 min 34 sec) 
Heartbeat CPU  0 instructions:   18000002 cycles:    9272720 heartbeat IPC: 1.94291 cumulative IPC: 1.94118 (Simulation time: 0 hr 0 min 36 sec) 
Heartbeat CPU  0 instructions:   19000003 cycles:    9787839 heartbeat IPC: 1.94130 cumulative IPC: 1.94118 (Simulation time: 0 hr 0 min 38 sec) 
Heartbeat CPU  0 instructions:   20000000 cycles:   10303167 heartbeat IPC: 1.94051 cumulative IPC: 1.94115 (Simulation time: 0 hr 0 min 40 sec) 
Heartbeat CPU  0 instructions:   21000001 cycles:   10818262 heartbeat IPC: 1.94139 cumulative IPC: 1.94116 (Simulation time: 0 hr 0 min 42 sec) 
Heartbeat CPU  0 instructions:   22000000 cycles:   11333446 heartbeat IPC: 1.94105 cumulative IPC: 1.94116 (Simulation time: 0 hr 0 min 44 sec) 
Heartbeat CPU  0 instructions:   23000003 cycles:   11848812 heartbeat IPC: 1.94037 cumulative IPC: 1.94112 (Simulation time: 0 hr 0 min 47 sec) 
Heartbeat CPU  0 instructions:   24000000 cycles:   12363731 heartbeat IPC: 1.94205 cumulative IPC: 1.94116 (Simulation time: 0 hr 0 min 49 sec) 
Heartbeat CPU  0 instructions:   25000000 cycles:   12878713 heartbeat IPC: 1.94182 cumulative IPC: 1.94119 (Simulation time: 0 hr 0 min 51 sec) 
Heartbeat CPU  0 instructions:   26000003 cycles:   13393941 heartbeat IPC: 1.94089 cumulative IPC: 1.94118 (Simulation time: 0 hr 0 min 53 sec) 
Heartbeat CPU  0 instructions:   27000002 cycles:   13909061 heartbeat IPC: 1.94129 cumulative IPC: 1.94118 (Simulation time: 0 hr 0 min 55 sec) 
Heartbeat CPU  0 instructions:   28000000 cycles:   14424084 heartbeat IPC: 1.94166 cumulative IPC: 1.94120 (Simulation time: 0 hr 0 min 57 sec) 
Heartbeat CPU  0 instructions:   29000000 cycles:   14939272 heartbeat IPC: 1.94104 cumulative IPC: 1.94119 (Simulation time: 0 hr 0 min 59 sec) 
Heartbeat CPU  0 instructions:   30000002 cycles:   15454453 heartbeat IPC: 1.94107 cumulative IPC: 1.94119 (Simulation time: 0 hr 1 min 1 sec) 
Heartbeat CPU  0 instructions:   31000001 cycles:   15969387 heartbeat IPC: 1.94199 cumulative IPC: 1.94121 (Simulation time: 0 hr 1 min 3 sec) 
Heartbeat CPU  0 instructions:   32000000 cycles:   16484825 heartbeat IPC: 1.94010 cumulative IPC: 1.94118 (Simulation time: 0 hr 1 min 5 sec) 
Heartbeat CPU  0 instructions:   33000000 cycles:   17000016 heartbeat IPC: 1.94103 cumulative IPC: 1.94117 (Simulation time: 0 hr 1 min 7 sec) 
Heartbeat CPU  0 instructions:   34000001 cycles:   17514897 heartbeat IPC: 1.94220 cumulative IPC: 1.94120 (Simulation time: 0 hr 1 min 9 sec) 
Heartbeat CPU  0 instructions:   35000000 cycles:   18030106 heartbeat IPC: 1.94096 cumulative IPC: 1.94120 (Simulation time: 0 hr 1 min 11 sec) 
Heartbeat CPU  0 instructions:   36000000 cycles:   18545404 heartbeat IPC: 1.94062 cumulative IPC: 1.94118 (Simulation time: 0 hr 1 min 13 sec) 
Heartbeat CPU  0 instructions:   37000001 cycles:   19060491 heartbeat IPC: 1.94142 cumulative IPC: 1.94119 (Simulation time: 0 hr 1 min 15 sec) 
Heartbeat CPU  0 instructions:   38000000 cycles:   19575703 heartbeat IPC: 1.94095 cumulative IPC: 1.94118 (Simulation time: 0 hr 1 min 17 sec) 
Heartbeat CPU  0 instructions:   39000002 cycles:   20091056 heartbeat IPC: 1.94042 cumulative IPC: 1.94116 (Simulation time: 0 hr 1 min 19 sec) 
Heartbeat CPU  0 instructions:   40000000 cycles:   20605904 heartbeat IPC: 1.94232 cumulative IPC: 1.94119 (Simulation time: 0 hr 1 min 21 sec) 
Heartbeat CPU  0 instructions:   41000000 cycles:   21120954 heartbeat IPC: 1.94156 cumulative IPC: 1.94120 (Simulation time: 0 hr 1 min 23 sec) 
Heartbeat CPU  0 instructions:   42000000 cycles:   21636257 heartbeat IPC: 1.94061 cumulative IPC: 1.94119 (Simulation time: 0 hr 1 min 25 sec) 
Heartbeat CPU  0 instructions:   43000003 cycles:   22150975 heartbeat IPC: 1.94282 cumulative IPC: 1.94122 (Simulation time: 0 hr 1 min 27 sec) 
Heartbeat CPU  0 instructions:   44000000 cycles:   22666043 heartbeat IPC: 1.94149 cumulative IPC: 1.94123 (Simulation time: 0 hr 1 min 29 sec) 
Heartbeat CPU  0 instructions:   45000003 cycles:   23181402 heartbeat IPC: 1.94040 cumulative IPC: 1.94121 (Simulation time: 0 hr 1 min 31 sec) 
Heartbeat CPU  0 instructions:   46000001 cycles:   23696459 heartbeat IPC: 1.94153 cumulative IPC: 1.94122 (Simulation time: 0 hr 1 min 33 sec) 
Heartbeat CPU  0 instructions:   47000000 cycles:   24211606 heartbeat IPC: 1.94119 cumulative IPC: 1.94122 (Simulation time: 0 hr 1 min 35 sec) 
Heartbeat CPU  0 instructions:   48000000 cycles:   24727111 heartbeat IPC: 1.93985 cumulative IPC: 1.94119 (Simulation time: 0 hr 1 min 37 sec) 
Heartbeat CPU  0 instructions:   49000000 cycles:   25242204 heartbeat IPC: 1.94140 cumulative IPC: 1.94119 (Simulation time: 0 hr 1 min 39 sec) 
Heartbeat CPU  0 instructions:   50000000 cycles:   25757134 heartbeat IPC: 1.94201 cumulative IPC: 1.94121 (Simulation time: 0 hr 1 min 42 sec) 
Heartbeat CPU  0 instructions:   51000003 cycles:   26272371 heartbeat IPC: 1.94086 cumulative IPC: 1.94120 (Simulation time: 0 hr 1 min 44 sec) 
Heartbeat CPU  0 instructions:   52000000 cycles:   26787489 heartbeat IPC: 1.94130 cumulative IPC: 1.94120 (Simulation time: 0 hr 1 min 46 sec) 
Heartbeat CPU  0 instructions:   53000001 cycles:   27302751 heartbeat IPC: 1.94076 cumulative IPC: 1.94120 (Simulation time: 0 hr 1 min 48 sec) 
Heartbeat CPU  0 instructions:   54000003 cycles:   27818102 heartbeat IPC: 1.94043 cumulative IPC: 1.94118 (Simulation time: 0 hr 1 min 50 sec) 
Heartbeat CPU  0 instructions:   55000003 cycles:   28333149 heartbeat IPC: 1.94157 cumulative IPC: 1.94119 (Simulation time: 0 hr 1 min 52 sec) 
Heartbeat CPU  0 instructions:   56000000 cycles:   28847991 heartbeat IPC: 1.94234 cumulative IPC: 1.94121 (Simulation time: 0 hr 1 min 54 sec) 
Heartbeat CPU  0 instructions:   57000002 cycles:   29389723 heartbeat IPC: 1.84593 cumulative IPC: 1.93945 (Simulation time: 0 hr 1 min 56 sec) 
Heartbeat CPU  0 instructions:   58000001 cycles:   29936729 heartbeat IPC: 1.82813 cumulative IPC: 1.93742 (Simulation time: 0 hr 1 min 58 sec) 
Heartbeat CPU  0 instructions:   59000001 cycles:   30483746 heartbeat IPC: 1.82810 cumulative IPC: 1.93546 (Simulation time: 0 hr 2 min 0 sec) 
Heartbeat CPU  0 instructions:   60000000 cycles:   31030905 heartbeat IPC: 1.82762 cumulative IPC: 1.93356 (Simulation time: 0 hr 2 min 2 sec) 
Heartbeat CPU  0 instructions:   61000003 cycles:   31577920 heartbeat IPC: 1.82811 cumulative IPC: 1.93173 (Simulation time: 0 hr 2 min 4 sec) 
Heartbeat CPU  0 instructions:   62000003 cycles:   32124832 heartbeat IPC: 1.82845 cumulative IPC: 1.92997 (Simulation time: 0 hr 2 min 6 sec) 
Heartbeat CPU  0 instructions:   63000003 cycles:   32671924 heartbeat IPC: 1.82785 cumulative IPC: 1.92826 (Simulation time: 0 hr 2 min 8 sec) 
Heartbeat CPU  0 instructions:   64000000 cycles:   33218769 heartbeat IPC: 1.82867 cumulative IPC: 1.92662 (Simulation time: 0 hr 2 min 10 sec) 
Heartbeat CPU  0 instructions:   65000002 cycles:   33761475 heartbeat IPC: 1.84262 cumulative IPC: 1.92527 (Simulation time: 0 hr 2 min 12 sec) 
Heartbeat CPU  0 instructions:   66000002 cycles:   34293064 heartbeat IPC: 1.88115 cumulative IPC: 1.92459 (Simulation time: 0 hr 2 min 14 sec) 
Heartbeat CPU  0 instructions:   67000001 cycles:   34824980 heartbeat IPC: 1.87999 cumulative IPC: 1.92391 (Simulation time: 0 hr 2 min 16 sec) 
Heartbeat CPU  0 instructions:   68000000 cycles:   35356587 heartbeat IPC: 1.88109 cumulative IPC: 1.92326 (Simulation time: 0 hr 2 min 18 sec) 
Heartbeat CPU  0 instructions:   69000003 cycles:   35888378 heartbeat IPC: 1.88044 cumulative IPC: 1.92263 (Simulation time: 0 hr 2 min 20 sec) 
Heartbeat CPU  0 instructions:   70000000 cycles:   36420056 heartbeat IPC: 1.88083 cumulative IPC: 1.92202 (Simulation time: 0 hr 2 min 22 sec) 
Heartbeat CPU  0 instructions:   71000001 cycles:   36951793 heartbeat IPC: 1.88063 cumulative IPC: 1.92142 (Simulation time: 0 hr 2 min 24 sec) 
Heartbeat CPU  0 instructions:   72000000 cycles:   37483413 heartbeat IPC: 1.88104 cumulative IPC: 1.92085 (Simulation time: 0 hr 2 min 26 sec) 
Heartbeat CPU  0 instructions:   73000000 cycles:   38015242 heartbeat IPC: 1.88030 cumulative IPC: 1.92028 (Simulation time: 0 hr 2 min 28 sec) 
Heartbeat CPU  0 instructions:   74000001 cycles:   38546326 heartbeat IPC: 1.88294 cumulative IPC: 1.91977 (Simulation time: 0 hr 2 min 30 sec) 
Heartbeat CPU  0 instructions:   75000001 cycles:   39077507 heartbeat IPC: 1.88260 cumulative IPC: 1.91926 (Simulation time: 0 hr 2 min 32 sec) 
Heartbeat CPU  0 instructions:   76000000 cycles:   39608356 heartbeat IPC: 1.88377 cumulative IPC: 1.91879 (Simulation time: 0 hr 2 min 34 sec) 
Heartbeat CPU  0 instructions:   77000003 cycles:   40139587 heartbeat IPC: 1.88243 cumulative IPC: 1.91831 (Simulation time: 0 hr 2 min 37 sec) 
Heartbeat CPU  0 instructions:   78000002 cycles:   40670430 heartbeat IPC: 1.88379 cumulative IPC: 1.91786 (Simulation time: 0 hr 2 min 39 sec) 
Heartbeat CPU  0 instructions:   79000000 cycles:   41201615 heartbeat IPC: 1.88258 cumulative IPC: 1.91740 (Simulation time: 0 hr 2 min 41 sec) 
Heartbeat CPU  0 instructions:   80000000 cycles:   41732454 heartbeat IPC: 1.88381 cumulative IPC: 1.91697 (Simulation time: 0 hr 2 min 43 sec) 
Heartbeat CPU  0 instructions:   81000003 cycles:   42263652 heartbeat IPC: 1.88254 cumulative IPC: 1.91654 (Simulation time: 0 hr 2 min 45 sec) 
Heartbeat CPU  0 instructions:   82000003 cycles:   42794569 heartbeat IPC: 1.88353 cumulative IPC: 1.91613 (Simulation time: 0 hr 2 min 47 sec) 
Heartbeat CPU  0 instructions:   83000000 cycles:   43381665 heartbeat IPC: 1.70329 cumulative IPC: 1.91325 (Simulation time: 0 hr 2 min 49 sec) 
Heartbeat CPU  0 instructions:   84000000 cycles:   43989266 heartbeat IPC: 1.64582 cumulative IPC: 1.90956 (Simulation time: 0 hr 2 min 51 sec) 
Heartbeat CPU  0 instructions:   85000001 cycles:   44597142 heartbeat IPC: 1.64507 cumulative IPC: 1.90595 (Simulation time: 0 hr 2 min 54 sec) 
Heartbeat CPU  0 instructions:   86000001 cycles:   45204774 heartbeat IPC: 1.64573 cumulative IPC: 1.90245 (Simulation time: 0 hr 2 min 56 sec) 
Heartbeat CPU  0 instructions:   87000002 cycles:   45812603 heartbeat IPC: 1.64520 cumulative IPC: 1.89904 (Simulation time: 0 hr 2 min 59 sec) 
Heartbeat CPU  0 instructions:   88000000 cycles:   46420453 heartbeat IPC: 1.64514 cumulative IPC: 1.89572 (Simulation time: 0 hr 3 min 1 sec) 
Heartbeat CPU  0 instructions:   89000002 cycles:   47028451 heartbeat IPC: 1.64475 cumulative IPC: 1.89247 (Simulation time: 0 hr 3 min 4 sec) 
Heartbeat CPU  0 instructions:   90000003 cycles:   47636176 heartbeat IPC: 1.64548 cumulative IPC: 1.88932 (Simulation time: 0 hr 3 min 6 sec) 
Heartbeat CPU  0 instructions:   91000000 cycles:   48243975 heartbeat IPC: 1.64528 cumulative IPC: 1.88625 (Simulation time: 0 hr 3 min 9 sec) 
Heartbeat CPU  0 instructions:   92000000 cycles:   48851575 heartbeat IPC: 1.64582 cumulative IPC: 1.88326 (Simulation time: 0 hr 3 min 11 sec) 
Heartbeat CPU  0 instructions:   93000000 cycles:   49459337 heartbeat IPC: 1.64538 cumulative IPC: 1.88033 (Simulation time: 0 hr 3 min 14 sec) 
Heartbeat CPU  0 instructions:   94000001 cycles:   50067112 heartbeat IPC: 1.64535 cumulative IPC: 1.87748 (Simulation time: 0 hr 3 min 16 sec) 
Heartbeat CPU  0 instructions:   95000003 cycles:   50674801 heartbeat IPC: 1.64558 cumulative IPC: 1.87470 (Simulation time: 0 hr 3 min 19 sec) 
Heartbeat CPU  0 instructions:   96000000 cycles:   51282553 heartbeat IPC: 1.64540 cumulative IPC: 1.87198 (Simulation time: 0 hr 3 min 21 sec) 
Heartbeat CPU  0 instructions:   97000000 cycles:   51890430 heartbeat IPC: 1.64507 cumulative IPC: 1.86932 (Simulation time: 0 hr 3 min 24 sec) 
Heartbeat CPU  0 instructions:   98000002 cycles:   52498271 heartbeat IPC: 1.64517 cumulative IPC: 1.86673 (Simulation time: 0 hr 3 min 26 sec) 
Heartbeat CPU  0 instructions:   99000003 cycles:   53106107 heartbeat IPC: 1.64518 cumulative IPC: 1.86419 (Simulation time: 0 hr 3 min 29 sec) 
Heartbeat CPU  0 instructions:  100000000 cycles:   53713693 heartbeat IPC: 1.64585 cumulative IPC: 1.86172 (Simulation time: 0 hr 3 min 31 sec) 

Warmup complete CPU  0 instructions:  100000002 cycles:   53713694 (Simulation time: 0 hr 3 min 31 sec) 

Heartbeat CPU  0 instructions:  101000003 cycles:   54820370 heartbeat IPC: 0.90361 cumulative IPC: 0.90361 (Simulation time: 0 hr 3 min 34 sec) 
Heartbeat CPU  0 instructions:  102000000 cycles:   55948863 heartbeat IPC: 0.88613 cumulative IPC: 0.89479 (Simulation time: 0 hr 3 min 37 sec) 
Heartbeat CPU  0 instructions:  103000000 cycles:   57114898 heartbeat IPC: 0.85761 cumulative IPC: 0.88204 (Simulation time: 0 hr 3 min 40 sec) 
Heartbeat CPU  0 instructions:  104000000 cycles:   58244301 heartbeat IPC: 0.88542 cumulative IPC: 0.88288 (Simulation time: 0 hr 3 min 43 sec) 
Heartbeat CPU  0 instructions:  105000001 cycles:   59354477 heartbeat IPC: 0.90076 cumulative IPC: 0.88640 (Simulation time: 0 hr 3 min 46 sec) 
Heartbeat CPU  0 instructions:  106000001 cycles:   60500709 heartbeat IPC: 0.87242 cumulative IPC: 0.88404 (Simulation time: 0 hr 3 min 49 sec) 
Heartbeat CPU  0 instructions:  107000002 cycles:   61647357 heartbeat IPC: 0.87211 cumulative IPC: 0.88232 (Simulation time: 0 hr 3 min 51 sec) 
Heartbeat CPU  0 instructions:  108000000 cycles:   62774235 heartbeat IPC: 0.88741 cumulative IPC: 0.88295 (Simulation time: 0 hr 3 min 54 sec) 
Heartbeat CPU  0 instructions:  109000002 cycles:   63880493 heartbeat IPC: 0.90395 cumulative IPC: 0.88523 (Simulation time: 0 hr 3 min 57 sec) 
Heartbeat CPU  0 instructions:  110000003 cycles:   65024212 heartbeat IPC: 0.87434 cumulative IPC: 0.88413 (Simulation time: 0 hr 4 min 0 sec) 
Heartbeat CPU  0 instructions:  111000000 cycles:   66180857 heartbeat IPC: 0.86457 cumulative IPC: 0.88232 (Simulation time: 0 hr 4 min 3 sec) 
Heartbeat CPU  0 instructions:  112000000 cycles:   67335831 heartbeat IPC: 0.86582 cumulative IPC: 0.88092 (Simulation time: 0 hr 4 min 6 sec) 
Heartbeat CPU  0 instructions:  113000000 cycles:   68465214 heartbeat IPC: 0.88544 cumulative IPC: 0.88126 (Simulation time: 0 hr 4 min 9 sec) 
Heartbeat CPU  0 instructions:  114000001 cycles:   69583400 heartbeat IPC: 0.89431 cumulative IPC: 0.88218 (Simulation time: 0 hr 4 min 12 sec) 
Heartbeat CPU  0 instructions:  115000002 cycles:   70719929 heartbeat IPC: 0.87987 cumulative IPC: 0.88203 (Simulation time: 0 hr 4 min 15 sec) 
Heartbeat CPU  0 instructions:  116000000 cycles:   71850579 heartbeat IPC: 0.88445 cumulative IPC: 0.88218 (Simulation time: 0 hr 4 min 18 sec) 
Heartbeat CPU  0 instructions:  117000001 cycles:   73001791 heartbeat IPC: 0.86865 cumulative IPC: 0.88137 (Simulation time: 0 hr 4 min 21 sec) 
Heartbeat CPU  0 instructions:  118000002 cycles:   74162683 heartbeat IPC: 0.86141 cumulative IPC: 0.88024 (Simulation time: 0 hr 4 min 24 sec) 
Heartbeat CPU  0 instructions:  119000003 cycles:   75344451 heartbeat IPC: 0.84619 cumulative IPC: 0.87838 (Simulation time: 0 hr 4 min 27 sec) 
Heartbeat CPU  0 instructions:  120000000 cycles:   76498584 heartbeat IPC: 0.86645 cumulative IPC: 0.87777 (Simulation time: 0 hr 4 min 30 sec) 
Heartbeat CPU  0 instructions:  121000003 cycles:   77463581 heartbeat IPC: 1.03628 cumulative IPC: 0.88421 (Simulation time: 0 hr 4 min 33 sec) 
Heartbeat CPU  0 instructions:  122000002 cycles:   78321756 heartbeat IPC: 1.16526 cumulative IPC: 0.89402 (Simulation time: 0 hr 4 min 35 sec) 
Heartbeat CPU  0 instructions:  123000002 cycles:   79179301 heartbeat IPC: 1.16612 cumulative IPC: 0.90318 (Simulation time: 0 hr 4 min 38 sec) 
Heartbeat CPU  0 instructions:  124000000 cycles:   80039089 heartbeat IPC: 1.16308 cumulative IPC: 0.91167 (Simulation time: 0 hr 4 min 40 sec) 
Heartbeat CPU  0 instructions:  125000000 cycles:   80896831 heartbeat IPC: 1.16585 cumulative IPC: 0.91969 (Simulation time: 0 hr 4 min 43 sec) 
Heartbeat CPU  0 instructions:  126000001 cycles:   81751844 heartbeat IPC: 1.16957 cumulative IPC: 0.92731 (Simulation time: 0 hr 4 min 45 sec) 
Heartbeat CPU  0 instructions:  127000002 cycles:   82609182 heartbeat IPC: 1.16640 cumulative IPC: 0.93440 (Simulation time: 0 hr 4 min 48 sec) 
Heartbeat CPU  0 instructions:  128000000 cycles:   83467700 heartbeat IPC: 1.16480 cumulative IPC: 0.94105 (Simulation time: 0 hr 4 min 50 sec) 
Heartbeat CPU  0 instructions:  129000003 cycles:   84327816 heartbeat IPC: 1.16264 cumulative IPC: 0.94728 (Simulation time: 0 hr 4 min 53 sec) 
Heartbeat CPU  0 instructions:  130000003 cycles:   85182138 heartbeat IPC: 1.17052 cumulative IPC: 0.95334 (Simulation time: 0 hr 4 min 55 sec) 
Heartbeat CPU  0 instructions:  131000000 cycles:   86053958 heartbeat IPC: 1.14702 cumulative IPC: 0.95856 (Simulation time: 0 hr 4 min 58 sec) 
Heartbeat CPU  0 instructions:  132000000 cycles:   86905425 heartbeat IPC: 1.17444 cumulative IPC: 0.96410 (Simulation time: 0 hr 5 min 0 sec) 
Heartbeat CPU  0 instructions:  133000002 cycles:   87763532 heartbeat IPC: 1.16536 cumulative IPC: 0.96917 (Simulation time: 0 hr 5 min 3 sec) 
Heartbeat CPU  0 instructions:  134000000 cycles:   88613941 heartbeat IPC: 1.17590 cumulative IPC: 0.97421 (Simulation time: 0 hr 5 min 5 sec) 
Heartbeat CPU  0 instructions:  135000000 cycles:   89468893 heartbeat IPC: 1.16966 cumulative IPC: 0.97888 (Simulation time: 0 hr 5 min 8 sec) 
Heartbeat CPU  0 instructions:  136000000 cycles:   90321630 heartbeat IPC: 1.17269 cumulative IPC: 0.98339 (Simulation time: 0 hr 5 min 10 sec) 
Heartbeat CPU  0 instructions:  137000000 cycles:   91176785 heartbeat IPC: 1.16938 cumulative IPC: 0.98764 (Simulation time: 0 hr 5 min 13 sec) 
Heartbeat CPU  0 instructions:  138000003 cycles:   92031287 heartbeat IPC: 1.17028 cumulative IPC: 0.99171 (Simulation time: 0 hr 5 min 15 sec) 
Heartbeat CPU  0 instructions:  139000001 cycles:   92885241 heartbeat IPC: 1.17102 cumulative IPC: 0.99562 (Simulation time: 0 hr 5 min 18 sec) 
Heartbeat CPU  0 instructions:  140000000 cycles:   93737202 heartbeat IPC: 1.17376 cumulative IPC: 0.99941 (Simulation time: 0 hr 5 min 20 sec) 
Heartbeat CPU  0 instructions:  141000000 cycles:   94591649 heartbeat IPC: 1.17035 cumulative IPC: 1.00299 (Simulation time: 0 hr 5 min 23 sec) 
Heartbeat CPU  0 instructions:  142000000 cycles:   95460328 heartbeat IPC: 1.15117 cumulative IPC: 1.00607 (Simulation time: 0 hr 5 min 25 sec) 
Heartbeat CPU  0 instructions:  143000001 cycles:   96312411 heartbeat IPC: 1.17360 cumulative IPC: 1.00942 (Simulation time: 0 hr 5 min 28 sec) 
Heartbeat CPU  0 instructions:  144000000 cycles:   97168144 heartbeat IPC: 1.16859 cumulative IPC: 1.01255 (Simulation time: 0 hr 5 min 31 sec) 
Heartbeat CPU  0 instructions:  145000003 cycles:   98023323 heartbeat IPC: 1.16935 cumulative IPC: 1.01558 (Simulation time: 0 hr 5 min 33 sec) 
Heartbeat CPU  0 instructions:  146000001 cycles:   98882560 heartbeat IPC: 1.16382 cumulative IPC: 1.01840 (Simulation time: 0 hr 5 min 36 sec) 
Heartbeat CPU  0 instructions:  147000002 cycles:   99735779 heartbeat IPC: 1.17203 cumulative IPC: 1.02125 (Simulation time: 0 hr 5 min 38 sec) 
Heartbeat CPU  0 instructions:  148000000 cycles:  100589212 heartbeat IPC: 1.17174 cumulative IPC: 1.02399 (Simulation time: 0 hr 5 min 41 sec) 
Heartbeat CPU  0 instructions:  149000000 cycles:  101443598 heartbeat IPC: 1.17043 cumulative IPC: 1.02661 (Simulation time: 0 hr 5 min 43 sec) 
Heartbeat CPU  0 instructions:  150000000 cycles:  102299623 heartbeat IPC: 1.16819 cumulative IPC: 1.02910 (Simulation time: 0 hr 5 min 46 sec) 
Heartbeat CPU  0 instructions:  151000001 cycles:  103153877 heartbeat IPC: 1.17061 cumulative IPC: 1.03155 (Simulation time: 0 hr 5 min 48 sec) 
Heartbeat CPU  0 instructions:  152000000 cycles:  104023620 heartbeat IPC: 1.14976 cumulative IPC: 1.03359 (Simulation time: 0 hr 5 min 51 sec) 
Heartbeat CPU  0 instructions:  153000001 cycles:  104873724 heartbeat IPC: 1.17633 cumulative IPC: 1.03596 (Simulation time: 0 hr 5 min 53 sec) 
Heartbeat CPU  0 instructions:  154000003 cycles:  105726119 heartbeat IPC: 1.17317 cumulative IPC: 1.03821 (Simulation time: 0 hr 5 min 56 sec) 
Heartbeat CPU  0 instructions:  155000003 cycles:  106579309 heartbeat IPC: 1.17207 cumulative IPC: 1.04037 (Simulation time: 0 hr 5 min 58 sec) 
Heartbeat CPU  0 instructions:  156000000 cycles:  107431734 heartbeat IPC: 1.17312 cumulative IPC: 1.04248 (Simulation time: 0 hr 6 min 1 sec) 
Heartbeat CPU  0 instructions:  157000000 cycles:  108288364 heartbeat IPC: 1.16737 cumulative IPC: 1.04444 (Simulation time: 0 hr 6 min 3 sec) 
Heartbeat CPU  0 instructions:  158000002 cycles:  109144196 heartbeat IPC: 1.16846 cumulative IPC: 1.04636 (Simulation time: 0 hr 6 min 6 sec) 
Heartbeat CPU  0 instructions:  159000002 cycles:  109999244 heartbeat IPC: 1.16953 cumulative IPC: 1.04823 (Simulation time: 0 hr 6 min 8 sec) 
Heartbeat CPU  0 instructions:  160000000 cycles:  110851284 heartbeat IPC: 1.17365 cumulative IPC: 1.05010 (Simulation time: 0 hr 6 min 11 sec) 
Heartbeat CPU  0 instructions:  161000003 cycles:  111710062 heartbeat IPC: 1.16445 cumulative IPC: 1.05179 (Simulation time: 0 hr 6 min 13 sec) 
Heartbeat CPU  0 instructions:  162000000 cycles:  112562584 heartbeat IPC: 1.17299 cumulative IPC: 1.05355 (Simulation time: 0 hr 6 min 16 sec) 
Heartbeat CPU  0 instructions:  163000001 cycles:  113434660 heartbeat IPC: 1.14669 cumulative IPC: 1.05491 (Simulation time: 0 hr 6 min 19 sec) 
Heartbeat CPU  0 instructions:  164000000 cycles:  114282360 heartbeat IPC: 1.17966 cumulative IPC: 1.05665 (Simulation time: 0 hr 6 min 21 sec) 
Heartbeat CPU  0 instructions:  165000001 cycles:  115134549 heartbeat IPC: 1.17345 cumulative IPC: 1.05827 (Simulation time: 0 hr 6 min 24 sec) 
Heartbeat CPU  0 instructions:  166000003 cycles:  115987773 heartbeat IPC: 1.17203 cumulative IPC: 1.05983 (Simulation time: 0 hr 6 min 26 sec) 
Heartbeat CPU  0 instructions:  167000001 cycles:  116843193 heartbeat IPC: 1.16901 cumulative IPC: 1.06131 (Simulation time: 0 hr 6 min 29 sec) 
Heartbeat CPU  0 instructions:  168000000 cycles:  117693621 heartbeat IPC: 1.17588 cumulative IPC: 1.06283 (Simulation time: 0 hr 6 min 31 sec) 
Heartbeat CPU  0 instructions:  169000001 cycles:  118550609 heartbeat IPC: 1.16688 cumulative IPC: 1.06421 (Simulation time: 0 hr 6 min 34 sec) 
Heartbeat CPU  0 instructions:  170000000 cycles:  119399333 heartbeat IPC: 1.17824 cumulative IPC: 1.06568 (Simulation time: 0 hr 6 min 36 sec) 
Heartbeat CPU  0 instructions:  171000000 cycles:  120253461 heartbeat IPC: 1.17078 cumulative IPC: 1.06703 (Simulation time: 0 hr 6 min 39 sec) 
Heartbeat CPU  0 instructions:  172000000 cycles:  121108932 heartbeat IPC: 1.16895 cumulative IPC: 1.06832 (Simulation time: 0 hr 6 min 41 sec) 
Heartbeat CPU  0 instructions:  173000002 cycles:  121977032 heartbeat IPC: 1.15194 cumulative IPC: 1.06939 (Simulation time: 0 hr 6 min 44 sec) 
Heartbeat CPU  0 instructions:  174000002 cycles:  122830543 heartbeat IPC: 1.17163 cumulative IPC: 1.07065 (Simulation time: 0 hr 6 min 46 sec) 
Heartbeat CPU  0 instructions:  175000000 cycles:  123681733 heartbeat IPC: 1.17482 cumulative IPC: 1.07192 (Simulation time: 0 hr 6 min 49 sec) 
Heartbeat CPU  0 instructions:  176000000 cycles:  124535137 heartbeat IPC: 1.17178 cumulative IPC: 1.07312 (Simulation time: 0 hr 6 min 51 sec) 
Heartbeat CPU  0 instructions:  177000001 cycles:  125390105 heartbeat IPC: 1.16964 cumulative IPC: 1.07427 (Simulation time: 0 hr 6 min 54 sec) 
Heartbeat CPU  0 instructions:  178000002 cycles:  126249543 heartbeat IPC: 1.16355 cumulative IPC: 1.07533 (Simulation time: 0 hr 6 min 56 sec) 
Heartbeat CPU  0 instructions:  179000001 cycles:  127098589 heartbeat IPC: 1.17779 cumulative IPC: 1.07652 (Simulation time: 0 hr 6 min 59 sec) 
Heartbeat CPU  0 instructions:  180000000 cycles:  127954659 heartbeat IPC: 1.16813 cumulative IPC: 1.07757 (Simulation time: 0 hr 7 min 1 sec) 
Heartbeat CPU  0 instructions:  181000000 cycles:  128807921 heartbeat IPC: 1.17197 cumulative IPC: 1.07864 (Simulation time: 0 hr 7 min 4 sec) 
Heartbeat CPU  0 instructions:  182000000 cycles:  129663016 heartbeat IPC: 1.16946 cumulative IPC: 1.07967 (Simulation time: 0 hr 7 min 6 sec) 
Heartbeat CPU  0 instructions:  183000003 cycles:  130516104 heartbeat IPC: 1.17222 cumulative IPC: 1.08070 (Simulation time: 0 hr 7 min 9 sec) 
Heartbeat CPU  0 instructions:  184000000 cycles:  131383936 heartbeat IPC: 1.15229 cumulative IPC: 1.08150 (Simulation time: 0 hr 7 min 12 sec) 
Heartbeat CPU  0 instructions:  185000002 cycles:  132236623 heartbeat IPC: 1.17277 cumulative IPC: 1.08249 (Simulation time: 0 hr 7 min 14 sec) 
Heartbeat CPU  0 instructions:  186000003 cycles:  133090007 heartbeat IPC: 1.17181 cumulative IPC: 1.08345 (Simulation time: 0 hr 7 min 17 sec) 
Heartbeat CPU  0 instructions:  187000003 cycles:  133944836 heartbeat IPC: 1.16982 cumulative IPC: 1.08437 (Simulation time: 0 hr 7 min 19 sec) 
Heartbeat CPU  0 instructions:  188000000 cycles:  134801779 heartbeat IPC: 1.16694 cumulative IPC: 1.08524 (Simulation time: 0 hr 7 min 22 sec) 
Heartbeat CPU  0 instructions:  189000001 cycles:  135658272 heartbeat IPC: 1.16755 cumulative IPC: 1.08610 (Simulation time: 0 hr 7 min 24 sec) 
Heartbeat CPU  0 instructions:  190000003 cycles:  136510210 heartbeat IPC: 1.17380 cumulative IPC: 1.08700 (Simulation time: 0 hr 7 min 27 sec) 
Heartbeat CPU  0 instructions:  191000001 cycles:  137363358 heartbeat IPC: 1.17213 cumulative IPC: 1.08787 (Simulation time: 0 hr 7 min 29 sec) 
Heartbeat CPU  0 instructions:  192000000 cycles:  138214805 heartbeat IPC: 1.17447 cumulative IPC: 1.08874 (Simulation time: 0 hr 7 min 32 sec) 
Heartbeat CPU  0 instructions:  193000000 cycles:  139070267 heartbeat IPC: 1.16896 cumulative IPC: 1.08955 (Simulation time: 0 hr 7 min 34 sec) 
Heartbeat CPU  0 instructions:  194000003 cycles:  139942939 heartbeat IPC: 1.14591 cumulative IPC: 1.09012 (Simulation time: 0 hr 7 min 37 sec) 
Heartbeat CPU  0 instructions:  195000002 cycles:  140795224 heartbeat IPC: 1.17332 cumulative IPC: 1.09093 (Simulation time: 0 hr 7 min 39 sec) 
Heartbeat CPU  0 instructions:  196000000 cycles:  141648248 heartbeat IPC: 1.17230 cumulative IPC: 1.09172 (Simulation time: 0 hr 7 min 42 sec) 
Heartbeat CPU  0 instructions:  197000000 cycles:  142501382 heartbeat IPC: 1.17215 cumulative IPC: 1.09249 (Simulation time: 0 hr 7 min 44 sec) 
Heartbeat CPU  0 instructions:  198000001 cycles:  143354690 heartbeat IPC: 1.17191 cumulative IPC: 1.09325 (Simulation time: 0 hr 7 min 47 sec) 
Heartbeat CPU  0 instructions:  199000003 cycles:  144209659 heartbeat IPC: 1.16964 cumulative IPC: 1.09397 (Simulation time: 0 hr 7 min 49 sec) 
Heartbeat CPU  0 instructions:  200000000 cycles:  145059950 heartbeat IPC: 1.17606 cumulative IPC: 1.09474 (Simulation time: 0 hr 7 min 52 sec) 
Heartbeat CPU  0 instructions:  201000002 cycles:  145910367 heartbeat IPC: 1.17590 cumulative IPC: 1.09548 (Simulation time: 0 hr 7 min 54 sec) 
Heartbeat CPU  0 instructions:  202000000 cycles:  146764391 heartbeat IPC: 1.17092 cumulative IPC: 1.09618 (Simulation time: 0 hr 7 min 57 sec) 
Heartbeat CPU  0 instructions:  203000000 cycles:  147617917 heartbeat IPC: 1.17161 cumulative IPC: 1.09686 (Simulation time: 0 hr 7 min 59 sec) 
Heartbeat CPU  0 instructions:  204000000 cycles:  148470926 heartbeat IPC: 1.17232 cumulative IPC: 1.09754 (Simulation time: 0 hr 8 min 2 sec) 
Heartbeat CPU  0 instructions:  205000000 cycles:  149335764 heartbeat IPC: 1.15629 cumulative IPC: 1.09807 (Simulation time: 0 hr 8 min 4 sec) 
Heartbeat CPU  0 instructions:  206000003 cycles:  150189877 heartbeat IPC: 1.17081 cumulative IPC: 1.09872 (Simulation time: 0 hr 8 min 7 sec) 
Heartbeat CPU  0 instructions:  207000003 cycles:  151043098 heartbeat IPC: 1.17203 cumulative IPC: 1.09936 (Simulation time: 0 hr 8 min 9 sec) 
Heartbeat CPU  0 instructions:  208000000 cycles:  151900801 heartbeat IPC: 1.16590 cumulative IPC: 1.09994 (Simulation time: 0 hr 8 min 12 sec) 
Heartbeat CPU  0 instructions:  209000000 cycles:  152752044 heartbeat IPC: 1.17475 cumulative IPC: 1.10058 (Simulation time: 0 hr 8 min 15 sec) 
Heartbeat CPU  0 instructions:  210000003 cycles:  153609215 heartbeat IPC: 1.16663 cumulative IPC: 1.10115 (Simulation time: 0 hr 8 min 17 sec) 
Heartbeat CPU  0 instructions:  211000002 cycles:  154462105 heartbeat IPC: 1.17248 cumulative IPC: 1.10175 (Simulation time: 0 hr 8 min 20 sec) 
Heartbeat CPU  0 instructions:  212000000 cycles:  155315439 heartbeat IPC: 1.17187 cumulative IPC: 1.10234 (Simulation time: 0 hr 8 min 22 sec) 
Heartbeat CPU  0 instructions:  213000002 cycles:  156170923 heartbeat IPC: 1.16893 cumulative IPC: 1.10290 (Simulation time: 0 hr 8 min 25 sec) 
Heartbeat CPU  0 instructions:  214000000 cycles:  157025347 heartbeat IPC: 1.17038 cumulative IPC: 1.10346 (Simulation time: 0 hr 8 min 27 sec) 
Heartbeat CPU  0 instructions:  215000002 cycles:  157894578 heartbeat IPC: 1.15044 cumulative IPC: 1.10385 (Simulation time: 0 hr 8 min 30 sec) 
Heartbeat CPU  0 instructions:  216000000 cycles:  158748090 heartbeat IPC: 1.17163 cumulative IPC: 1.10440 (Simulation time: 0 hr 8 min 32 sec) 
Heartbeat CPU  0 instructions:  217000002 cycles:  159600899 heartbeat IPC: 1.17260 cumulative IPC: 1.10495 (Simulation time: 0 hr 8 min 35 sec) 
Heartbeat CPU  0 instructions:  218000002 cycles:  160452823 heartbeat IPC: 1.17381 cumulative IPC: 1.10550 (Simulation time: 0 hr 8 min 37 sec) 
Heartbeat CPU  0 instructions:  219000002 cycles:  161309252 heartbeat IPC: 1.16764 cumulative IPC: 1.10599 (Simulation time: 0 hr 8 min 40 sec) 
Heartbeat CPU  0 instructions:  220000000 cycles:  162161059 heartbeat IPC: 1.17397 cumulative IPC: 1.10653 (Simulation time: 0 hr 8 min 43 sec) 
Heartbeat CPU  0 instructions:  221000002 cycles:  163017549 heartbeat IPC: 1.16756 cumulative IPC: 1.10701 (Simulation time: 0 hr 8 min 45 sec) 
Heartbeat CPU  0 instructions:  222000000 cycles:  163869457 heartbeat IPC: 1.17383 cumulative IPC: 1.10752 (Simulation time: 0 hr 8 min 48 sec) 
Heartbeat CPU  0 instructions:  223000002 cycles:  164721304 heartbeat IPC: 1.17392 cumulative IPC: 1.10803 (Simulation time: 0 hr 8 min 50 sec) 
Heartbeat CPU  0 instructions:  224000000 cycles:  165572873 heartbeat IPC: 1.17430 cumulative IPC: 1.10854 (Simulation time: 0 hr 8 min 53 sec) 
Heartbeat CPU  0 instructions:  225000000 cycles:  166444531 heartbeat IPC: 1.14724 cumulative IPC: 1.10884 (Simulation time: 0 hr 8 min 55 sec) 
Heartbeat CPU  0 instructions:  226000000 cycles:  167293255 heartbeat IPC: 1.17824 cumulative IPC: 1.10935 (Simulation time: 0 hr 8 min 58 sec) 
Heartbeat CPU  0 instructions:  227000001 cycles:  168145516 heartbeat IPC: 1.17335 cumulative IPC: 1.10983 (Simulation time: 0 hr 9 min 0 sec) 
Heartbeat CPU  0 instructions:  228000000 cycles:  168996563 heartbeat IPC: 1.17502 cumulative IPC: 1.11031 (Simulation time: 0 hr 9 min 3 sec) 
Heartbeat CPU  0 instructions:  229000001 cycles:  169851890 heartbeat IPC: 1.16914 cumulative IPC: 1.11075 (Simulation time: 0 hr 9 min 5 sec) 
Heartbeat CPU  0 instructions:  230000001 cycles:  170707881 heartbeat IPC: 1.16824 cumulative IPC: 1.11117 (Simulation time: 0 hr 9 min 8 sec) 
Heartbeat CPU  0 instructions:  231000003 cycles:  171559139 heartbeat IPC: 1.17473 cumulative IPC: 1.11163 (Simulation time: 0 hr 9 min 10 sec) 
Heartbeat CPU  0 instructions:  232000000 cycles:  172410895 heartbeat IPC: 1.17404 cumulative IPC: 1.11207 (Simulation time: 0 hr 9 min 13 sec) 
Heartbeat CPU  0 instructions:  233000000 cycles:  173263061 heartbeat IPC: 1.17348 cumulative IPC: 1.11251 (Simulation time: 0 hr 9 min 15 sec) 
Heartbeat CPU  0 instructions:  234000001 cycles:  174114613 heartbeat IPC: 1.17433 cumulative IPC: 1.11295 (Simulation time: 0 hr 9 min 18 sec) 
Heartbeat CPU  0 instructions:  235000001 cycles:  174966016 heartbeat IPC: 1.17453 cumulative IPC: 1.11338 (Simulation time: 0 hr 9 min 21 sec) 
Heartbeat CPU  0 instructions:  236000000 cycles:  175836821 heartbeat IPC: 1.14836 cumulative IPC: 1.11363 (Simulation time: 0 hr 9 min 23 sec) 
Heartbeat CPU  0 instructions:  237000000 cycles:  176688329 heartbeat IPC: 1.17439 cumulative IPC: 1.11405 (Simulation time: 0 hr 9 min 26 sec) 
Heartbeat CPU  0 instructions:  238000000 cycles:  177544689 heartbeat IPC: 1.16773 cumulative IPC: 1.11442 (Simulation time: 0 hr 9 min 28 sec) 
Heartbeat CPU  0 instructions:  239000003 cycles:  178396268 heartbeat IPC: 1.17429 cumulative IPC: 1.11483 (Simulation time: 0 hr 9 min 31 sec) 
Heartbeat CPU  0 instructions:  240000000 cycles:  179249009 heartbeat IPC: 1.17269 cumulative IPC: 1.11522 (Simulation time: 0 hr 9 min 33 sec) 
Heartbeat CPU  0 instructions:  241000001 cycles:  180099409 heartbeat IPC: 1.17592 cumulative IPC: 1.11563 (Simulation time: 0 hr 9 min 36 sec) 
Heartbeat CPU  0 instructions:  242000001 cycles:  180956468 heartbeat IPC: 1.16678 cumulative IPC: 1.11598 (Simulation time: 0 hr 9 min 38 sec) 
Heartbeat CPU  0 instructions:  243000001 cycles:  181809350 heartbeat IPC: 1.17250 cumulative IPC: 1.11635 (Simulation time: 0 hr 9 min 41 sec) 
Heartbeat CPU  0 instructions:  244000000 cycles:  182665219 heartbeat IPC: 1.16840 cumulative IPC: 1.11670 (Simulation time: 0 hr 9 min 43 sec) 
Heartbeat CPU  0 instructions:  245000002 cycles:  183514668 heartbeat IPC: 1.17724 cumulative IPC: 1.11709 (Simulation time: 0 hr 9 min 46 sec) 
Heartbeat CPU  0 instructions:  246000003 cycles:  184384908 heartbeat IPC: 1.14911 cumulative IPC: 1.11731 (Simulation time: 0 hr 9 min 48 sec) 
Heartbeat CPU  0 instructions:  247000003 cycles:  185240947 heartbeat IPC: 1.16817 cumulative IPC: 1.11764 (Simulation time: 0 hr 9 min 51 sec) 
Heartbeat CPU  0 instructions:  248000000 cycles:  186088820 heartbeat IPC: 1.17942 cumulative IPC: 1.11803 (Simulation time: 0 hr 9 min 53 sec) 
Heartbeat CPU  0 instructions:  249000003 cycles:  186940880 heartbeat IPC: 1.17363 cumulative IPC: 1.11839 (Simulation time: 0 hr 9 min 56 sec) 
Heartbeat CPU  0 instructions:  250000003 cycles:  187791074 heartbeat IPC: 1.17620 cumulative IPC: 1.11876 (Simulation time: 0 hr 9 min 58 sec) 
Heartbeat CPU  0 instructions:  251000003 cycles:  188647934 heartbeat IPC: 1.16705 cumulative IPC: 1.11906 (Simulation time: 0 hr 10 min 1 sec) 
Heartbeat CPU  0 instructions:  252000000 cycles:  189503083 heartbeat IPC: 1.16938 cumulative IPC: 1.11938 (Simulation time: 0 hr 10 min 3 sec) 
Heartbeat CPU  0 instructions:  253000001 cycles:  190359362 heartbeat IPC: 1.16784 cumulative IPC: 1.11968 (Simulation time: 0 hr 10 min 6 sec) 
Heartbeat CPU  0 instructions:  254000000 cycles:  191206940 heartbeat IPC: 1.17983 cumulative IPC: 1.12005 (Simulation time: 0 hr 10 min 8 sec) 
Heartbeat CPU  0 instructions:  255000002 cycles:  192065692 heartbeat IPC: 1.16448 cumulative IPC: 1.12033 (Simulation time: 0 hr 10 min 11 sec) 
Heartbeat CPU  0 instructions:  256000000 cycles:  192917820 heartbeat IPC: 1.17353 cumulative IPC: 1.12066 (Simulation time: 0 hr 10 min 13 sec) 
Heartbeat CPU  0 instructions:  257000002 cycles:  193786106 heartbeat IPC: 1.15170 cumulative IPC: 1.12085 (Simulation time: 0 hr 10 min 16 sec) 
Heartbeat CPU  0 instructions:  258000003 cycles:  194639190 heartbeat IPC: 1.17222 cumulative IPC: 1.12116 (Simulation time: 0 hr 10 min 19 sec) 
Heartbeat CPU  0 instructions:  259000002 cycles:  195491399 heartbeat IPC: 1.17342 cumulative IPC: 1.12147 (Simulation time: 0 hr 10 min 21 sec) 
Heartbeat CPU  0 instructions:  260000000 cycles:  196346085 heartbeat IPC: 1.17002 cumulative IPC: 1.12176 (Simulation time: 0 hr 10 min 24 sec) 
Heartbeat CPU  0 instructions:  261000001 cycles:  197198195 heartbeat IPC: 1.17356 cumulative IPC: 1.12207 (Simulation time: 0 hr 10 min 26 sec) 
Heartbeat CPU  0 instructions:  262000002 cycles:  198054339 heartbeat IPC: 1.16803 cumulative IPC: 1.12234 (Simulation time: 0 hr 10 min 29 sec) 
Heartbeat CPU  0 instructions:  263000001 cycles:  198908868 heartbeat IPC: 1.17023 cumulative IPC: 1.12263 (Simulation time: 0 hr 10 min 31 sec) 
Heartbeat CPU  0 instructions:  264000000 cycles:  199766299 heartbeat IPC: 1.16627 cumulative IPC: 1.12288 (Simulation time: 0 hr 10 min 34 sec) 
Heartbeat CPU  0 instructions:  265000002 cycles:  200616833 heartbeat IPC: 1.17573 cumulative IPC: 1.12319 (Simulation time: 0 hr 10 min 36 sec) 
Heartbeat CPU  0 instructions:  266000000 cycles:  201472413 heartbeat IPC: 1.16880 cumulative IPC: 1.12345 (Simulation time: 0 hr 10 min 39 sec) 
Heartbeat CPU  0 instructions:  267000002 cycles:  202286539 heartbeat IPC: 1.22831 cumulative IPC: 1.12403 (Simulation time: 0 hr 10 min 41 sec) 
Heartbeat CPU  0 instructions:  268000000 cycles:  203100403 heartbeat IPC: 1.22870 cumulative IPC: 1.12460 (Simulation time: 0 hr 10 min 43 sec) 
Heartbeat CPU  0 instructions:  269000002 cycles:  204065841 heartbeat IPC: 1.03580 cumulative IPC: 1.12403 (Simulation time: 0 hr 10 min 46 sec) 
Heartbeat CPU  0 instructions:  270000003 cycles:  205033573 heartbeat IPC: 1.03334 cumulative IPC: 1.12345 (Simulation time: 0 hr 10 min 48 sec) 
Heartbeat CPU  0 instructions:  271000001 cycles:  205997818 heartbeat IPC: 1.03708 cumulative IPC: 1.12290 (Simulation time: 0 hr 10 min 51 sec) 
Heartbeat CPU  0 instructions:  272000000 cycles:  206963603 heartbeat IPC: 1.03543 cumulative IPC: 1.12235 (Simulation time: 0 hr 10 min 54 sec) 
Heartbeat CPU  0 instructions:  273000002 cycles:  207929888 heartbeat IPC: 1.03489 cumulative IPC: 1.12180 (Simulation time: 0 hr 10 min 56 sec) 
Heartbeat CPU  0 instructions:  274000003 cycles:  208896638 heartbeat IPC: 1.03439 cumulative IPC: 1.12126 (Simulation time: 0 hr 10 min 59 sec) 
Heartbeat CPU  0 instructions:  275000000 cycles:  209859417 heartbeat IPC: 1.03866 cumulative IPC: 1.12075 (Simulation time: 0 hr 11 min 1 sec) 
Heartbeat CPU  0 instructions:  276000000 cycles:  210827206 heartbeat IPC: 1.03328 cumulative IPC: 1.12021 (Simulation time: 0 hr 11 min 4 sec) 
Heartbeat CPU  0 instructions:  277000003 cycles:  211794080 heartbeat IPC: 1.03426 cumulative IPC: 1.11968 (Simulation time: 0 hr 11 min 7 sec) 
Heartbeat CPU  0 instructions:  278000003 cycles:  212762091 heartbeat IPC: 1.03305 cumulative IPC: 1.11916 (Simulation time: 0 hr 11 min 9 sec) 
Heartbeat CPU  0 instructions:  279000001 cycles:  213724129 heartbeat IPC: 1.03946 cumulative IPC: 1.11868 (Simulation time: 0 hr 11 min 12 sec) 
Heartbeat CPU  0 instructions:  280000000 cycles:  214690025 heartbeat IPC: 1.03531 cumulative IPC: 1.11818 (Simulation time: 0 hr 11 min 15 sec) 
Heartbeat CPU  0 instructions:  281000001 cycles:  215648670 heartbeat IPC: 1.04314 cumulative IPC: 1.11773 (Simulation time: 0 hr 11 min 17 sec) 
Heartbeat CPU  0 instructions:  282000003 cycles:  216607441 heartbeat IPC: 1.04300 cumulative IPC: 1.11729 (Simulation time: 0 hr 11 min 20 sec) 
Heartbeat CPU  0 instructions:  283000000 cycles:  217566060 heartbeat IPC: 1.04316 cumulative IPC: 1.11686 (Simulation time: 0 hr 11 min 22 sec) 
Heartbeat CPU  0 instructions:  284000000 cycles:  218525351 heartbeat IPC: 1.04244 cumulative IPC: 1.11643 (Simulation time: 0 hr 11 min 25 sec) 
Heartbeat CPU  0 instructions:  285000002 cycles:  219483958 heartbeat IPC: 1.04318 cumulative IPC: 1.11600 (Simulation time: 0 hr 11 min 27 sec) 
Heartbeat CPU  0 instructions:  286000000 cycles:  220441822 heartbeat IPC: 1.04399 cumulative IPC: 1.11559 (Simulation time: 0 hr 11 min 30 sec) 
Heartbeat CPU  0 instructions:  287000000 cycles:  221403899 heartbeat IPC: 1.03942 cumulative IPC: 1.11515 (Simulation time: 0 hr 11 min 33 sec) 
Heartbeat CPU  0 instructions:  288000000 cycles:  222363732 heartbeat IPC: 1.04185 cumulative IPC: 1.11473 (Simulation time: 0 hr 11 min 35 sec) 
Heartbeat CPU  0 instructions:  289000003 cycles:  223322710 heartbeat IPC: 1.04278 cumulative IPC: 1.11433 (Simulation time: 0 hr 11 min 38 sec) 
Heartbeat CPU  0 instructions:  290000000 cycles:  224279065 heartbeat IPC: 1.04563 cumulative IPC: 1.11394 (Simulation time: 0 hr 11 min 40 sec) 
Heartbeat CPU  0 instructions:  291000000 cycles:  225237469 heartbeat IPC: 1.04340 cumulative IPC: 1.11355 (Simulation time: 0 hr 11 min 43 sec) 
Heartbeat CPU  0 instructions:  292000000 cycles:  226195934 heartbeat IPC: 1.04333 cumulative IPC: 1.11316 (Simulation time: 0 hr 11 min 46 sec) 
Heartbeat CPU  0 instructions:  293000000 cycles:  227157210 heartbeat IPC: 1.04028 cumulative IPC: 1.11275 (Simulation time: 0 hr 11 min 48 sec) 
Heartbeat CPU  0 instructions:  294000002 cycles:  228117739 heartbeat IPC: 1.04110 cumulative IPC: 1.11236 (Simulation time: 0 hr 11 min 51 sec) 
Heartbeat CPU  0 instructions:  295000002 cycles:  229076104 heartbeat IPC: 1.04344 cumulative IPC: 1.11198 (Simulation time: 0 hr 11 min 53 sec) 
Heartbeat CPU  0 instructions:  296000000 cycles:  230035195 heartbeat IPC: 1.04265 cumulative IPC: 1.11161 (Simulation time: 0 hr 11 min 56 sec) 
Heartbeat CPU  0 instructions:  297000001 cycles:  230993850 heartbeat IPC: 1.04313 cumulative IPC: 1.11124 (Simulation time: 0 hr 11 min 59 sec) 
Heartbeat CPU  0 instructions:  298000000 cycles:  231954508 heartbeat IPC: 1.04095 cumulative IPC: 1.11086 (Simulation time: 0 hr 12 min 1 sec) 
Heartbeat CPU  0 instructions:  299000003 cycles:  232912695 heartbeat IPC: 1.04364 cumulative IPC: 1.11050 (Simulation time: 0 hr 12 min 4 sec) 
Heartbeat CPU  0 instructions:  300000000 cycles:  233870405 heartbeat IPC: 1.04415 cumulative IPC: 1.11014 (Simulation time: 0 hr 12 min 6 sec) 
Heartbeat CPU  0 instructions:  301000002 cycles:  234827783 heartbeat IPC: 1.04452 cumulative IPC: 1.10980 (Simulation time: 0 hr 12 min 9 sec) 
Heartbeat CPU  0 instructions:  302000002 cycles:  235788761 heartbeat IPC: 1.04061 cumulative IPC: 1.10943 (Simulation time: 0 hr 12 min 11 sec) 
Heartbeat CPU  0 instructions:  303000001 cycles:  236747928 heartbeat IPC: 1.04257 cumulative IPC: 1.10908 (Simulation time: 0 hr 12 min 14 sec) 
Heartbeat CPU  0 instructions:  304000000 cycles:  237709343 heartbeat IPC: 1.04013 cumulative IPC: 1.10872 (Simulation time: 0 hr 12 min 17 sec) 
Heartbeat CPU  0 instructions:  305000000 cycles:  238669003 heartbeat IPC: 1.04204 cumulative IPC: 1.10838 (Simulation time: 0 hr 12 min 19 sec) 
Heartbeat CPU  0 instructions:  306000001 cycles:  239626839 heartbeat IPC: 1.04402 cumulative IPC: 1.10804 (Simulation time: 0 hr 12 min 22 sec) 
Heartbeat CPU  0 instructions:  307000003 cycles:  240582724 heartbeat IPC: 1.04615 cumulative IPC: 1.10773 (Simulation time: 0 hr 12 min 24 sec) 
Heartbeat CPU  0 instructions:  308000000 cycles:  241537437 heartbeat IPC: 1.04743 cumulative IPC: 1.10742 (Simulation time: 0 hr 12 min 27 sec) 
Heartbeat CPU  0 instructions:  309000000 cycles:  242493223 heartbeat IPC: 1.04626 cumulative IPC: 1.10711 (Simulation time: 0 hr 12 min 29 sec) 
Heartbeat CPU  0 instructions:  310000001 cycles:  243449922 heartbeat IPC: 1.04526 cumulative IPC: 1.10680 (Simulation time: 0 hr 12 min 32 sec) 
Heartbeat CPU  0 instructions:  311000001 cycles:  244407746 heartbeat IPC: 1.04403 cumulative IPC: 1.10648 (Simulation time: 0 hr 12 min 35 sec) 
Heartbeat CPU  0 instructions:  312000000 cycles:  245367389 heartbeat IPC: 1.04205 cumulative IPC: 1.10616 (Simulation time: 0 hr 12 min 37 sec) 
Heartbeat CPU  0 instructions:  313000000 cycles:  246326044 heartbeat IPC: 1.04313 cumulative IPC: 1.10585 (Simulation time: 0 hr 12 min 40 sec) 
Heartbeat CPU  0 instructions:  314000001 cycles:  247284559 heartbeat IPC: 1.04328 cumulative IPC: 1.10554 (Simulation time: 0 hr 12 min 42 sec) 
Heartbeat CPU  0 instructions:  315000000 cycles:  248242112 heartbeat IPC: 1.04433 cumulative IPC: 1.10524 (Simulation time: 0 hr 12 min 45 sec) 
Heartbeat CPU  0 instructions:  316000000 cycles:  249199446 heartbeat IPC: 1.04457 cumulative IPC: 1.10494 (Simulation time: 0 hr 12 min 48 sec) 
Heartbeat CPU  0 instructions:  317000001 cycles:  250157549 heartbeat IPC: 1.04373 cumulative IPC: 1.10464 (Simulation time: 0 hr 12 min 50 sec) 
Heartbeat CPU  0 instructions:  318000001 cycles:  251116068 heartbeat IPC: 1.04328 cumulative IPC: 1.10434 (Simulation time: 0 hr 12 min 53 sec) 
Heartbeat CPU  0 instructions:  319000002 cycles:  252075068 heartbeat IPC: 1.04275 cumulative IPC: 1.10405 (Simulation time: 0 hr 12 min 55 sec) 
Heartbeat CPU  0 instructions:  320000000 cycles:  253031929 heartbeat IPC: 1.04508 cumulative IPC: 1.10376 (Simulation time: 0 hr 12 min 58 sec) 
Heartbeat CPU  0 instructions:  321000000 cycles:  253989603 heartbeat IPC: 1.04420 cumulative IPC: 1.10348 (Simulation time: 0 hr 13 min 0 sec) 
Heartbeat CPU  0 instructions:  322000001 cycles:  254949116 heartbeat IPC: 1.04220 cumulative IPC: 1.10319 (Simulation time: 0 hr 13 min 3 sec) 
Heartbeat CPU  0 instructions:  323000000 cycles:  255905753 heartbeat IPC: 1.04533 cumulative IPC: 1.10291 (Simulation time: 0 hr 13 min 6 sec) 
Heartbeat CPU  0 instructions:  324000000 cycles:  256863226 heartbeat IPC: 1.04442 cumulative IPC: 1.10264 (Simulation time: 0 hr 13 min 8 sec) 
Heartbeat CPU  0 instructions:  325000001 cycles:  257820583 heartbeat IPC: 1.04454 cumulative IPC: 1.10236 (Simulation time: 0 hr 13 min 11 sec) 
Heartbeat CPU  0 instructions:  326000000 cycles:  258779561 heartbeat IPC: 1.04278 cumulative IPC: 1.10208 (Simulation time: 0 hr 13 min 13 sec) 
Heartbeat CPU  0 instructions:  327000001 cycles:  259739720 heartbeat IPC: 1.04150 cumulative IPC: 1.10180 (Simulation time: 0 hr 13 min 16 sec) 
Heartbeat CPU  0 instructions:  328000000 cycles:  260698054 heartbeat IPC: 1.04348 cumulative IPC: 1.10153 (Simulation time: 0 hr 13 min 19 sec) 
Heartbeat CPU  0 instructions:  329000001 cycles:  261656535 heartbeat IPC: 1.04332 cumulative IPC: 1.10126 (Simulation time: 0 hr 13 min 21 sec) 
Heartbeat CPU  0 instructions:  330000000 cycles:  262584913 heartbeat IPC: 1.07715 cumulative IPC: 1.10116 (Simulation time: 0 hr 13 min 24 sec) 
Heartbeat CPU  0 instructions:  331000000 cycles:  263473236 heartbeat IPC: 1.12572 cumulative IPC: 1.10126 (Simulation time: 0 hr 13 min 26 sec) 
Heartbeat CPU  0 instructions:  332000000 cycles:  264364869 heartbeat IPC: 1.12154 cumulative IPC: 1.10135 (Simulation time: 0 hr 13 min 29 sec) 
Heartbeat CPU  0 instructions:  333000001 cycles:  265262523 heartbeat IPC: 1.11402 cumulative IPC: 1.10140 (Simulation time: 0 hr 13 min 31 sec) 
Heartbeat CPU  0 instructions:  334000002 cycles:  266156677 heartbeat IPC: 1.11838 cumulative IPC: 1.10147 (Simulation time: 0 hr 13 min 34 sec) 
Heartbeat CPU  0 instructions:  335000002 cycles:  267043842 heartbeat IPC: 1.12719 cumulative IPC: 1.10158 (Simulation time: 0 hr 13 min 36 sec) 
Heartbeat CPU  0 instructions:  336000000 cycles:  267936083 heartbeat IPC: 1.12077 cumulative IPC: 1.10166 (Simulation time: 0 hr 13 min 38 sec) 
Heartbeat CPU  0 instructions:  337000003 cycles:  268829102 heartbeat IPC: 1.11980 cumulative IPC: 1.10173 (Simulation time: 0 hr 13 min 41 sec) 
Heartbeat CPU  0 instructions:  338000000 cycles:  269724148 heartbeat IPC: 1.11726 cumulative IPC: 1.10180 (Simulation time: 0 hr 13 min 43 sec) 
Heartbeat CPU  0 instructions:  339000001 cycles:  270609928 heartbeat IPC: 1.12895 cumulative IPC: 1.10191 (Simulation time: 0 hr 13 min 46 sec) 
Heartbeat CPU  0 instructions:  340000000 cycles:  271493926 heartbeat IPC: 1.13122 cumulative IPC: 1.10203 (Simulation time: 0 hr 13 min 48 sec) 
Heartbeat CPU  0 instructions:  341000000 cycles:  272380224 heartbeat IPC: 1.12829 cumulative IPC: 1.10213 (Simulation time: 0 hr 13 min 51 sec) 
Heartbeat CPU  0 instructions:  342000000 cycles:  273261840 heartbeat IPC: 1.13428 cumulative IPC: 1.10226 (Simulation time: 0 hr 13 min 53 sec) 
Heartbeat CPU  0 instructions:  343000000 cycles:  274146272 heartbeat IPC: 1.13067 cumulative IPC: 1.10238 (Simulation time: 0 hr 13 min 56 sec) 
Heartbeat CPU  0 instructions:  344000000 cycles:  275032426 heartbeat IPC: 1.12847 cumulative IPC: 1.10248 (Simulation time: 0 hr 13 min 58 sec) 
Heartbeat CPU  0 instructions:  345000000 cycles:  275917269 heartbeat IPC: 1.13014 cumulative IPC: 1.10259 (Simulation time: 0 hr 14 min 0 sec) 
Heartbeat CPU  0 instructions:  346000003 cycles:  276801306 heartbeat IPC: 1.13118 cumulative IPC: 1.10271 (Simulation time: 0 hr 14 min 3 sec) 
Heartbeat CPU  0 instructions:  347000002 cycles:  277685151 heartbeat IPC: 1.13142 cumulative IPC: 1.10282 (Simulation time: 0 hr 14 min 5 sec) 
Heartbeat CPU  0 instructions:  348000000 cycles:  278580146 heartbeat IPC: 1.11732 cumulative IPC: 1.10288 (Simulation time: 0 hr 14 min 8 sec) 
Heartbeat CPU  0 instructions:  349000000 cycles:  279478063 heartbeat IPC: 1.11369 cumulative IPC: 1.10292 (Simulation time: 0 hr 14 min 10 sec) 
Heartbeat CPU  0 instructions:  350000003 cycles:  280376450 heartbeat IPC: 1.11311 cumulative IPC: 1.10296 (Simulation time: 0 hr 14 min 13 sec) 
Heartbeat CPU  0 instructions:  351000003 cycles:  281272494 heartbeat IPC: 1.11602 cumulative IPC: 1.10301 (Simulation time: 0 hr 14 min 15 sec) 
Heartbeat CPU  0 instructions:  352000000 cycles:  282164067 heartbeat IPC: 1.12161 cumulative IPC: 1.10308 (Simulation time: 0 hr 14 min 17 sec) 
Heartbeat CPU  0 instructions:  353000000 cycles:  283060080 heartbeat IPC: 1.11606 cumulative IPC: 1.10313 (Simulation time: 0 hr 14 min 20 sec) 
Heartbeat CPU  0 instructions:  354000000 cycles:  283962734 heartbeat IPC: 1.10784 cumulative IPC: 1.10315 (Simulation time: 0 hr 14 min 22 sec) 
Heartbeat CPU  0 instructions:  355000001 cycles:  284857917 heartbeat IPC: 1.11709 cumulative IPC: 1.10321 (Simulation time: 0 hr 14 min 25 sec) 
Heartbeat CPU  0 instructions:  356000000 cycles:  285818834 heartbeat IPC: 1.04067 cumulative IPC: 1.10295 (Simulation time: 0 hr 14 min 27 sec) 
Heartbeat CPU  0 instructions:  357000003 cycles:  286965824 heartbeat IPC: 0.87185 cumulative IPC: 1.10181 (Simulation time: 0 hr 14 min 30 sec) 
Heartbeat CPU  0 instructions:  358000000 cycles:  288105303 heartbeat IPC: 0.87759 cumulative IPC: 1.10072 (Simulation time: 0 hr 14 min 33 sec) 
Heartbeat CPU  0 instructions:  359000002 cycles:  289215363 heartbeat IPC: 0.90085 cumulative IPC: 1.09978 (Simulation time: 0 hr 14 min 36 sec) 
Heartbeat CPU  0 instructions:  360000000 cycles:  290340407 heartbeat IPC: 0.88885 cumulative IPC: 1.09878 (Simulation time: 0 hr 14 min 39 sec) 
Heartbeat CPU  0 instructions:  361000000 cycles:  291464511 heartbeat IPC: 0.88960 cumulative IPC: 1.09779 (Simulation time: 0 hr 14 min 42 sec) 
Heartbeat CPU  0 instructions:  362000000 cycles:  292600487 heartbeat IPC: 0.88030 cumulative IPC: 1.09675 (Simulation time: 0 hr 14 min 45 sec) 
Heartbeat CPU  0 instructions:  363000000 cycles:  293756087 heartbeat IPC: 0.86535 cumulative IPC: 1.09564 (Simulation time: 0 hr 14 min 48 sec) 
Heartbeat CPU  0 instructions:  364000000 cycles:  294922218 heartbeat IPC: 0.85754 cumulative IPC: 1.09449 (Simulation time: 0 hr 14 min 51 sec) 
Heartbeat CPU  0 instructions:  365000002 cycles:  296080518 heartbeat IPC: 0.86334 cumulative IPC: 1.09338 (Simulation time: 0 hr 14 min 54 sec) 
Heartbeat CPU  0 instructions:  366000001 cycles:  297230621 heartbeat IPC: 0.86949 cumulative IPC: 1.09233 (Simulation time: 0 hr 14 min 57 sec) 
Heartbeat CPU  0 instructions:  367000001 cycles:  298347347 heartbeat IPC: 0.89547 cumulative IPC: 1.09143 (Simulation time: 0 hr 15 min 0 sec) 
Heartbeat CPU  0 instructions:  368000000 cycles:  299456968 heartbeat IPC: 0.90121 cumulative IPC: 1.09057 (Simulation time: 0 hr 15 min 3 sec) 
Heartbeat CPU  0 instructions:  369000001 cycles:  300594589 heartbeat IPC: 0.87903 cumulative IPC: 1.08959 (Simulation time: 0 hr 15 min 6 sec) 
Heartbeat CPU  0 instructions:  370000002 cycles:  301720524 heartbeat IPC: 0.88815 cumulative IPC: 1.08868 (Simulation time: 0 hr 15 min 8 sec) 
Heartbeat CPU  0 instructions:  371000002 cycles:  302870917 heartbeat IPC: 0.86927 cumulative IPC: 1.08767 (Simulation time: 0 hr 15 min 11 sec) 
Heartbeat CPU  0 instructions:  372000000 cycles:  304058666 heartbeat IPC: 0.84193 cumulative IPC: 1.08650 (Simulation time: 0 hr 15 min 14 sec) 
Heartbeat CPU  0 instructions:  373000000 cycles:  305210376 heartbeat IPC: 0.86827 cumulative IPC: 1.08550 (Simulation time: 0 hr 15 min 17 sec) 
Heartbeat CPU  0 instructions:  374000003 cycles:  306358996 heartbeat IPC: 0.87061 cumulative IPC: 1.08452 (Simulation time: 0 hr 15 min 20 sec) 
Heartbeat CPU  0 instructions:  375000002 cycles:  307501468 heartbeat IPC: 0.87529 cumulative IPC: 1.08358 (Simulation time: 0 hr 15 min 23 sec) 
Heartbeat CPU  0 instructions:  376000000 cycles:  308642807 heartbeat IPC: 0.87616 cumulative IPC: 1.08265 (Simulation time: 0 hr 15 min 26 sec) 
Heartbeat CPU  0 instructions:  377000001 cycles:  309765592 heartbeat IPC: 0.89064 cumulative IPC: 1.08181 (Simulation time: 0 hr 15 min 29 sec) 
Heartbeat CPU  0 instructions:  378000000 cycles:  310902849 heartbeat IPC: 0.87931 cumulative IPC: 1.08092 (Simulation time: 0 hr 15 min 32 sec) 
Heartbeat CPU  0 instructions:  379000001 cycles:  312042737 heartbeat IPC: 0.87728 cumulative IPC: 1.08002 (Simulation time: 0 hr 15 min 35 sec) 
Heartbeat CPU  0 instructions:  380000000 cycles:  313192780 heartbeat IPC: 0.86953 cumulative IPC: 1.07908 (Simulation time: 0 hr 15 min 38 sec) 
Heartbeat CPU  0 instructions:  381000001 cycles:  314351945 heartbeat IPC: 0.86269 cumulative IPC: 1.07812 (Simulation time: 0 hr 15 min 41 sec) 
Heartbeat CPU  0 instructions:  382000000 cycles:  315498692 heartbeat IPC: 0.87203 cumulative IPC: 1.07722 (Simulation time: 0 hr 15 min 44 sec) 
Heartbeat CPU  0 instructions:  383000000 cycles:  316643043 heartbeat IPC: 0.87386 cumulative IPC: 1.07633 (Simulation time: 0 hr 15 min 47 sec) 
Heartbeat CPU  0 instructions:  384000000 cycles:  317754644 heartbeat IPC: 0.89960 cumulative IPC: 1.07559 (Simulation time: 0 hr 15 min 49 sec) 
Heartbeat CPU  0 instructions:  385000001 cycles:  318863390 heartbeat IPC: 0.90192 cumulative IPC: 1.07486 (Simulation time: 0 hr 15 min 52 sec) 
Heartbeat CPU  0 instructions:  386000001 cycles:  319997115 heartbeat IPC: 0.88205 cumulative IPC: 1.07404 (Simulation time: 0 hr 15 min 55 sec) 
Heartbeat CPU  0 instructions:  387000003 cycles:  321113910 heartbeat IPC: 0.89542 cumulative IPC: 1.07330 (Simulation time: 0 hr 15 min 58 sec) 
Heartbeat CPU  0 instructions:  388000000 cycles:  322253300 heartbeat IPC: 0.87766 cumulative IPC: 1.07247 (Simulation time: 0 hr 16 min 1 sec) 
Heartbeat CPU  0 instructions:  389000002 cycles:  323387506 heartbeat IPC: 0.88168 cumulative IPC: 1.07167 (Simulation time: 0 hr 16 min 4 sec) 
Heartbeat CPU  0 instructions:  390000002 cycles:  324548571 heartbeat IPC: 0.86128 cumulative IPC: 1.07076 (Simulation time: 0 hr 16 min 7 sec) 
Heartbeat CPU  0 instructions:  391000001 cycles:  325709685 heartbeat IPC: 0.86124 cumulative IPC: 1.06987 (Simulation time: 0 hr 16 min 10 sec) 
Heartbeat CPU  0 instructions:  392000000 cycles:  326877184 heartbeat IPC: 0.85653 cumulative IPC: 1.06896 (Simulation time: 0 hr 16 min 13 sec) 
Heartbeat CPU  0 instructions:  393000003 cycles:  328011781 heartbeat IPC: 0.88137 cumulative IPC: 1.06818 (Simulation time: 0 hr 16 min 16 sec) 
Heartbeat CPU  0 instructions:  394000002 cycles:  328993082 heartbeat IPC: 1.01905 cumulative IPC: 1.06801 (Simulation time: 0 hr 16 min 19 sec) 
Heartbeat CPU  0 instructions:  395000001 cycles:  329878045 heartbeat IPC: 1.12999 cumulative IPC: 1.06820 (Simulation time: 0 hr 16 min 21 sec) 
Heartbeat CPU  0 instructions:  396000000 cycles:  330760001 heartbeat IPC: 1.13384 cumulative IPC: 1.06841 (Simulation time: 0 hr 16 min 24 sec) 
Heartbeat CPU  0 instructions:  397000000 cycles:  331648345 heartbeat IPC: 1.12569 cumulative IPC: 1.06860 (Simulation time: 0 hr 16 min 26 sec) 
Heartbeat CPU  0 instructions:  398000001 cycles:  332530638 heartbeat IPC: 1.13341 cumulative IPC: 1.06880 (Simulation time: 0 hr 16 min 29 sec) 
Heartbeat CPU  0 instructions:  399000001 cycles:  333412497 heartbeat IPC: 1.13397 cumulative IPC: 1.06901 (Simulation time: 0 hr 16 min 31 sec) 
Heartbeat CPU  0 instructions:  400000000 cycles:  334298457 heartbeat IPC: 1.12872 cumulative IPC: 1.06920 (Simulation time: 0 hr 16 min 34 sec) 
Heartbeat CPU  0 instructions:  401000001 cycles:  335179031 heartbeat IPC: 1.13562 cumulative IPC: 1.06940 (Simulation time: 0 hr 16 min 37 sec) 
Heartbeat CPU  0 instructions:  402000000 cycles:  336067782 heartbeat IPC: 1.12517 cumulative IPC: 1.06958 (Simulation time: 0 hr 16 min 39 sec) 
Heartbeat CPU  0 instructions:  403000003 cycles:  336920370 heartbeat IPC: 1.17290 cumulative IPC: 1.06989 (Simulation time: 0 hr 16 min 42 sec) 
Heartbeat CPU  0 instructions:  404000000 cycles:  337788698 heartbeat IPC: 1.15164 cumulative IPC: 1.07014 (Simulation time: 0 hr 16 min 44 sec) 
Heartbeat CPU  0 instructions:  405000002 cycles:  338664268 heartbeat IPC: 1.14212 cumulative IPC: 1.07036 (Simulation time: 0 hr 16 min 47 sec) 
Heartbeat CPU  0 instructions:  406000002 cycles:  339544357 heartbeat IPC: 1.13625 cumulative IPC: 1.07056 (Simulation time: 0 hr 16 min 49 sec) 
Heartbeat CPU  0 instructions:  407000003 cycles:  340427162 heartbeat IPC: 1.13275 cumulative IPC: 1.07076 (Simulation time: 0 hr 16 min 52 sec) 
Heartbeat CPU  0 instructions:  408000000 cycles:  341313995 heartbeat IPC: 1.12760 cumulative IPC: 1.07093 (Simulation time: 0 hr 16 min 54 sec) 
Heartbeat CPU  0 instructions:  409000003 cycles:  342193459 heartbeat IPC: 1.13706 cumulative IPC: 1.07113 (Simulation time: 0 hr 16 min 57 sec) 
Heartbeat CPU  0 instructions:  410000002 cycles:  343074587 heartbeat IPC: 1.13491 cumulative IPC: 1.07133 (Simulation time: 0 hr 16 min 59 sec) 
Heartbeat CPU  0 instructions:  411000002 cycles:  343954699 heartbeat IPC: 1.13622 cumulative IPC: 1.07152 (Simulation time: 0 hr 17 min 2 sec) 
Heartbeat CPU  0 instructions:  412000000 cycles:  344834944 heartbeat IPC: 1.13605 cumulative IPC: 1.07172 (Simulation time: 0 hr 17 min 5 sec) 
Heartbeat CPU  0 instructions:  413000000 cycles:  345699652 heartbeat IPC: 1.15646 cumulative IPC: 1.07197 (Simulation time: 0 hr 17 min 7 sec) 
Heartbeat CPU  0 instructions:  414000002 cycles:  346545852 heartbeat IPC: 1.18176 cumulative IPC: 1.07229 (Simulation time: 0 hr 17 min 10 sec) 
Heartbeat CPU  0 instructions:  415000002 cycles:  347430977 heartbeat IPC: 1.12978 cumulative IPC: 1.07246 (Simulation time: 0 hr 17 min 12 sec) 
Heartbeat CPU  0 instructions:  416000000 cycles:  348311395 heartbeat IPC: 1.13582 cumulative IPC: 1.07265 (Simulation time: 0 hr 17 min 15 sec) 
Heartbeat CPU  0 instructions:  417000000 cycles:  349196463 heartbeat IPC: 1.12986 cumulative IPC: 1.07282 (Simulation time: 0 hr 17 min 17 sec) 
Heartbeat CPU  0 instructions:  418000002 cycles:  350076756 heartbeat IPC: 1.13599 cumulative IPC: 1.07301 (Simulation time: 0 hr 17 min 20 sec) 
Heartbeat CPU  0 instructions:  419000002 cycles:  350960099 heartbeat IPC: 1.13206 cumulative IPC: 1.07318 (Simulation time: 0 hr 17 min 22 sec) 
Heartbeat CPU  0 instructions:  420000000 cycles:  351837101 heartbeat IPC: 1.14025 cumulative IPC: 1.07338 (Simulation time: 0 hr 17 min 25 sec) 
Heartbeat CPU  0 instructions:  421000000 cycles:  352717899 heartbeat IPC: 1.13533 cumulative IPC: 1.07356 (Simulation time: 0 hr 17 min 28 sec) 
Heartbeat CPU  0 instructions:  422000001 cycles:  353597552 heartbeat IPC: 1.13681 cumulative IPC: 1.07375 (Simulation time: 0 hr 17 min 30 sec) 
Heartbeat CPU  0 instructions:  423000002 cycles:  354474536 heartbeat IPC: 1.14027 cumulative IPC: 1.07394 (Simulation time: 0 hr 17 min 33 sec) 
Heartbeat CPU  0 instructions:  424000000 cycles:  355320396 heartbeat IPC: 1.18223 cumulative IPC: 1.07425 (Simulation time: 0 hr 17 min 35 sec) 
Heartbeat CPU  0 instructions:  425000003 cycles:  356191224 heartbeat IPC: 1.14834 cumulative IPC: 1.07446 (Simulation time: 0 hr 17 min 38 sec) 
Heartbeat CPU  0 instructions:  426000003 cycles:  357067146 heartbeat IPC: 1.14165 cumulative IPC: 1.07465 (Simulation time: 0 hr 17 min 40 sec) 
Heartbeat CPU  0 instructions:  427000000 cycles:  357946138 heartbeat IPC: 1.13766 cumulative IPC: 1.07484 (Simulation time: 0 hr 17 min 43 sec) 
Heartbeat CPU  0 instructions:  428000000 cycles:  358830527 heartbeat IPC: 1.13072 cumulative IPC: 1.07500 (Simulation time: 0 hr 17 min 45 sec) 
Heartbeat CPU  0 instructions:  429000001 cycles:  359711478 heartbeat IPC: 1.13514 cumulative IPC: 1.07517 (Simulation time: 0 hr 17 min 48 sec) 
Heartbeat CPU  0 instructions:  430000003 cycles:  360592553 heartbeat IPC: 1.13498 cumulative IPC: 1.07534 (Simulation time: 0 hr 17 min 50 sec) 
Heartbeat CPU  0 instructions:  431000000 cycles:  361474952 heartbeat IPC: 1.13327 cumulative IPC: 1.07551 (Simulation time: 0 hr 17 min 53 sec) 
Heartbeat CPU  0 instructions:  432000000 cycles:  362351501 heartbeat IPC: 1.14084 cumulative IPC: 1.07569 (Simulation time: 0 hr 17 min 56 sec) 
Heartbeat CPU  0 instructions:  433000001 cycles:  363237339 heartbeat IPC: 1.12888 cumulative IPC: 1.07585 (Simulation time: 0 hr 17 min 58 sec) 
Heartbeat CPU  0 instructions:  434000001 cycles:  364093960 heartbeat IPC: 1.16738 cumulative IPC: 1.07610 (Simulation time: 0 hr 18 min 1 sec) 
Heartbeat CPU  0 instructions:  435000003 cycles:  364938808 heartbeat IPC: 1.18365 cumulative IPC: 1.07639 (Simulation time: 0 hr 18 min 3 sec) 
Heartbeat CPU  0 instructions:  436000000 cycles:  365826311 heartbeat IPC: 1.12675 cumulative IPC: 1.07653 (Simulation time: 0 hr 18 min 6 sec) 
Heartbeat CPU  0 instructions:  437000001 cycles:  366706186 heartbeat IPC: 1.13653 cumulative IPC: 1.07670 (Simulation time: 0 hr 18 min 8 sec) 
Heartbeat CPU  0 instructions:  438000001 cycles:  367584741 heartbeat IPC: 1.13823 cumulative IPC: 1.07688 (Simulation time: 0 hr 18 min 11 sec) 
Heartbeat CPU  0 instructions:  439000003 cycles:  368465466 heartbeat IPC: 1.13543 cumulative IPC: 1.07704 (Simulation time: 0 hr 18 min 14 sec) 
Heartbeat CPU  0 instructions:  440000000 cycles:  369347409 heartbeat IPC: 1.13386 cumulative IPC: 1.07720 (Simulation time: 0 hr 18 min 16 sec) 
Heartbeat CPU  0 instructions:  441000001 cycles:  370228441 heartbeat IPC: 1.13503 cumulative IPC: 1.07736 (Simulation time: 0 hr 18 min 19 sec) 
Heartbeat CPU  0 instructions:  442000000 cycles:  371109265 heartbeat IPC: 1.13530 cumulative IPC: 1.07752 (Simulation time: 0 hr 18 min 21 sec) 
Heartbeat CPU  0 instructions:  443000003 cycles:  371985988 heartbeat IPC: 1.14061 cumulative IPC: 1.07769 (Simulation time: 0 hr 18 min 24 sec) 
Heartbeat CPU  0 instructions:  444000000 cycles:  372858958 heartbeat IPC: 1.14551 cumulative IPC: 1.07788 (Simulation time: 0 hr 18 min 26 sec) 
Heartbeat CPU  0 instructions:  445000000 cycles:  373702883 heartbeat IPC: 1.18494 cumulative IPC: 1.07816 (Simulation time: 0 hr 18 min 29 sec) 
Heartbeat CPU  0 instructions:  446000000 cycles:  374576580 heartbeat IPC: 1.14456 cumulative IPC: 1.07834 (Simulation time: 0 hr 18 min 31 sec) 
Heartbeat CPU  0 instructions:  447000001 cycles:  375450972 heartbeat IPC: 1.14365 cumulative IPC: 1.07852 (Simulation time: 0 hr 18 min 34 sec) 
Heartbeat CPU  0 instructions:  448000000 cycles:  376331432 heartbeat IPC: 1.13577 cumulative IPC: 1.07868 (Simulation time: 0 hr 18 min 37 sec) 
Heartbeat CPU  0 instructions:  449000001 cycles:  377214567 heartbeat IPC: 1.13233 cumulative IPC: 1.07882 (Simulation time: 0 hr 18 min 39 sec) 
Heartbeat CPU  0 instructions:  450000000 cycles:  378099844 heartbeat IPC: 1.12959 cumulative IPC: 1.07896 (Simulation time: 0 hr 18 min 42 sec) 
Heartbeat CPU  0 instructions:  451000000 cycles:  378981826 heartbeat IPC: 1.13381 cumulative IPC: 1.07911 (Simulation time: 0 hr 18 min 44 sec) 
Heartbeat CPU  0 instructions:  452000000 cycles:  379864192 heartbeat IPC: 1.13332 cumulative IPC: 1.07926 (Simulation time: 0 hr 18 min 47 sec) 
Heartbeat CPU  0 instructions:  453000002 cycles:  380743235 heartbeat IPC: 1.13760 cumulative IPC: 1.07941 (Simulation time: 0 hr 18 min 49 sec) 
Heartbeat CPU  0 instructions:  454000000 cycles:  381621450 heartbeat IPC: 1.13867 cumulative IPC: 1.07957 (Simulation time: 0 hr 18 min 52 sec) 
Heartbeat CPU  0 instructions:  455000002 cycles:  382478372 heartbeat IPC: 1.16697 cumulative IPC: 1.07980 (Simulation time: 0 hr 18 min 55 sec) 
Heartbeat CPU  0 instructions:  456000000 cycles:  383333201 heartbeat IPC: 1.16982 cumulative IPC: 1.08003 (Simulation time: 0 hr 18 min 57 sec) 
Heartbeat CPU  0 instructions:  457000002 cycles:  384211613 heartbeat IPC: 1.13842 cumulative IPC: 1.08019 (Simulation time: 0 hr 19 min 0 sec) 
Heartbeat CPU  0 instructions:  458000000 cycles:  385091643 heartbeat IPC: 1.13632 cumulative IPC: 1.08034 (Simulation time: 0 hr 19 min 2 sec) 
Heartbeat CPU  0 instructions:  459000000 cycles:  385976147 heartbeat IPC: 1.13058 cumulative IPC: 1.08047 (Simulation time: 0 hr 19 min 5 sec) 
Heartbeat CPU  0 instructions:  460000000 cycles:  386856690 heartbeat IPC: 1.13566 cumulative IPC: 1.08062 (Simulation time: 0 hr 19 min 7 sec) 
Heartbeat CPU  0 instructions:  461000000 cycles:  387738813 heartbeat IPC: 1.13363 cumulative IPC: 1.08076 (Simulation time: 0 hr 19 min 10 sec) 
Heartbeat CPU  0 instructions:  462000000 cycles:  388621106 heartbeat IPC: 1.13341 cumulative IPC: 1.08090 (Simulation time: 0 hr 19 min 13 sec) 
Heartbeat CPU  0 instructions:  463000003 cycles:  389499154 heartbeat IPC: 1.13889 cumulative IPC: 1.08105 (Simulation time: 0 hr 19 min 15 sec) 
Heartbeat CPU  0 instructions:  464000000 cycles:  390384247 heartbeat IPC: 1.12982 cumulative IPC: 1.08118 (Simulation time: 0 hr 19 min 18 sec) 
Heartbeat CPU  0 instructions:  465000003 cycles:  391253276 heartbeat IPC: 1.15071 cumulative IPC: 1.08135 (Simulation time: 0 hr 19 min 20 sec) 
Heartbeat CPU  0 instructions:  466000001 cycles:  392095248 heartbeat IPC: 1.18769 cumulative IPC: 1.08162 (Simulation time: 0 hr 19 min 23 sec) 
Heartbeat CPU  0 instructions:  467000000 cycles:  392973849 heartbeat IPC: 1.13817 cumulative IPC: 1.08177 (Simulation time: 0 hr 19 min 25 sec) 
Heartbeat CPU  0 instructions:  468000000 cycles:  393851564 heartbeat IPC: 1.13932 cumulative IPC: 1.08191 (Simulation time: 0 hr 19 min 28 sec) 
Heartbeat CPU  0 instructions:  469000002 cycles:  394733949 heartbeat IPC: 1.13329 cumulative IPC: 1.08205 (Simulation time: 0 hr 19 min 30 sec) 
Heartbeat CPU  0 instructions:  470000003 cycles:  395615933 heartbeat IPC: 1.13381 cumulative IPC: 1.08218 (Simulation time: 0 hr 19 min 33 sec) 
Heartbeat CPU  0 instructions:  471000001 cycles:  396496692 heartbeat IPC: 1.13538 cumulative IPC: 1.08232 (Simulation time: 0 hr 19 min 35 sec) 
Heartbeat CPU  0 instructions:  472000000 cycles:  397374249 heartbeat IPC: 1.13953 cumulative IPC: 1.08246 (Simulation time: 0 hr 19 min 38 sec) 
Heartbeat CPU  0 instructions:  473000000 cycles:  398257330 heartbeat IPC: 1.13240 cumulative IPC: 1.08259 (Simulation time: 0 hr 19 min 41 sec) 
Heartbeat CPU  0 instructions:  474000002 cycles:  399137234 heartbeat IPC: 1.13649 cumulative IPC: 1.08273 (Simulation time: 0 hr 19 min 43 sec) 
Heartbeat CPU  0 instructions:  475000000 cycles:  400015686 heartbeat IPC: 1.13836 cumulative IPC: 1.08287 (Simulation time: 0 hr 19 min 46 sec) 
Heartbeat CPU  0 instructions:  476000000 cycles:  400865995 heartbeat IPC: 1.17604 cumulative IPC: 1.08310 (Simulation time: 0 hr 19 min 48 sec) 
Heartbeat CPU  0 instructions:  477000003 cycles:  401732320 heartbeat IPC: 1.15430 cumulative IPC: 1.08328 (Simulation time: 0 hr 19 min 51 sec) 
Heartbeat CPU  0 instructions:  478000001 cycles:  402608745 heartbeat IPC: 1.14100 cumulative IPC: 1.08342 (Simulation time: 0 hr 19 min 53 sec) 
Heartbeat CPU  0 instructions:  479000000 cycles:  403488802 heartbeat IPC: 1.13629 cumulative IPC: 1.08355 (Simulation time: 0 hr 19 min 56 sec) 
Heartbeat CPU  0 instructions:  480000000 cycles:  404373087 heartbeat IPC: 1.13086 cumulative IPC: 1.08367 (Simulation time: 0 hr 19 min 59 sec) 
Heartbeat CPU  0 instructions:  481000001 cycles:  405255218 heartbeat IPC: 1.13362 cumulative IPC: 1.08380 (Simulation time: 0 hr 20 min 1 sec) 
Heartbeat CPU  0 instructions:  482000003 cycles:  406137055 heartbeat IPC: 1.13400 cumulative IPC: 1.08392 (Simulation time: 0 hr 20 min 4 sec) 
Heartbeat CPU  0 instructions:  483000000 cycles:  407016314 heartbeat IPC: 1.13732 cumulative IPC: 1.08406 (Simulation time: 0 hr 20 min 6 sec) 
Heartbeat CPU  0 instructions:  484000000 cycles:  407893444 heartbeat IPC: 1.14008 cumulative IPC: 1.08420 (Simulation time: 0 hr 20 min 9 sec) 
Heartbeat CPU  0 instructions:  485000001 cycles:  408777106 heartbeat IPC: 1.13166 cumulative IPC: 1.08431 (Simulation time: 0 hr 20 min 12 sec) 
Heartbeat CPU  0 instructions:  486000000 cycles:  409641757 heartbeat IPC: 1.15653 cumulative IPC: 1.08449 (Simulation time: 0 hr 20 min 14 sec) 
Heartbeat CPU  0 instructions:  487000002 cycles:  410484843 heartbeat IPC: 1.18612 cumulative IPC: 1.08473 (Simulation time: 0 hr 20 min 16 sec) 
Heartbeat CPU  0 instructions:  488000000 cycles:  411367450 heartbeat IPC: 1.13300 cumulative IPC: 1.08485 (Simulation time: 0 hr 20 min 19 sec) 
Heartbeat CPU  0 instructions:  489000000 cycles:  412241465 heartbeat IPC: 1.14415 cumulative IPC: 1.08499 (Simulation time: 0 hr 20 min 22 sec) 
Heartbeat CPU  0 instructions:  490000000 cycles:  413121014 heartbeat IPC: 1.13695 cumulative IPC: 1.08512 (Simulation time: 0 hr 20 min 24 sec) 
Heartbeat CPU  0 instructions:  491000001 cycles:  414004967 heartbeat IPC: 1.13128 cumulative IPC: 1.08523 (Simulation time: 0 hr 20 min 27 sec) 
Heartbeat CPU  0 instructions:  492000000 cycles:  414883254 heartbeat IPC: 1.13858 cumulative IPC: 1.08536 (Simulation time: 0 hr 20 min 29 sec) 
Heartbeat CPU  0 instructions:  493000000 cycles:  415765072 heartbeat IPC: 1.13402 cumulative IPC: 1.08548 (Simulation time: 0 hr 20 min 32 sec) 
Heartbeat CPU  0 instructions:  494000003 cycles:  416643138 heartbeat IPC: 1.13887 cumulative IPC: 1.08561 (Simulation time: 0 hr 20 min 34 sec) 
Heartbeat CPU  0 instructions:  495000001 cycles:  417523378 heartbeat IPC: 1.13605 cumulative IPC: 1.08573 (Simulation time: 0 hr 20 min 37 sec) 
Heartbeat CPU  0 instructions:  496000000 cycles:  418407068 heartbeat IPC: 1.13162 cumulative IPC: 1.08584 (Simulation time: 0 hr 20 min 40 sec) 
Heartbeat CPU  0 instructions:  497000003 cycles:  419248263 heartbeat IPC: 1.18879 cumulative IPC: 1.08608 (Simulation time: 0 hr 20 min 42 sec) 
Heartbeat CPU  0 instructions:  498000001 cycles:  420110377 heartbeat IPC: 1.15994 cumulative IPC: 1.08625 (Simulation time: 0 hr 20 min 45 sec) 
Heartbeat CPU  0 instructions:  499000000 cycles:  420989248 heartbeat IPC: 1.13782 cumulative IPC: 1.08638 (Simulation time: 0 hr 20 min 47 sec) 
Heartbeat CPU  0 instructions:  500000000 cycles:  421868173 heartbeat IPC: 1.13775 cumulative IPC: 1.08650 (Simulation time: 0 hr 20 min 50 sec) 
Heartbeat CPU  0 instructions:  501000003 cycles:  422749212 heartbeat IPC: 1.13503 cumulative IPC: 1.08662 (Simulation time: 0 hr 20 min 52 sec) 
Heartbeat CPU  0 instructions:  502000003 cycles:  423633856 heartbeat IPC: 1.13040 cumulative IPC: 1.08672 (Simulation time: 0 hr 20 min 55 sec) 
Heartbeat CPU  0 instructions:  503000002 cycles:  424514451 heartbeat IPC: 1.13559 cumulative IPC: 1.08684 (Simulation time: 0 hr 20 min 57 sec) 
Heartbeat CPU  0 instructions:  504000000 cycles:  425394390 heartbeat IPC: 1.13644 cumulative IPC: 1.08695 (Simulation time: 0 hr 21 min 0 sec) 
Heartbeat CPU  0 instructions:  505000000 cycles:  426273008 heartbeat IPC: 1.13815 cumulative IPC: 1.08708 (Simulation time: 0 hr 21 min 3 sec) 
Heartbeat CPU  0 instructions:  506000002 cycles:  427150556 heartbeat IPC: 1.13954 cumulative IPC: 1.08720 (Simulation time: 0 hr 21 min 5 sec) 
Heartbeat CPU  0 instructions:  507000001 cycles:  428013482 heartbeat IPC: 1.15885 cumulative IPC: 1.08736 (Simulation time: 0 hr 21 min 8 sec) 
Heartbeat CPU  0 instructions:  508000000 cycles:  428856384 heartbeat IPC: 1.18638 cumulative IPC: 1.08759 (Simulation time: 0 hr 21 min 10 sec) 
Heartbeat CPU  0 instructions:  509000002 cycles:  429743142 heartbeat IPC: 1.12771 cumulative IPC: 1.08768 (Simulation time: 0 hr 21 min 13 sec) 
Heartbeat CPU  0 instructions:  510000002 cycles:  430621301 heartbeat IPC: 1.13875 cumulative IPC: 1.08780 (Simulation time: 0 hr 21 min 15 sec) 
Heartbeat CPU  0 instructions:  511000001 cycles:  431504881 heartbeat IPC: 1.13176 cumulative IPC: 1.08790 (Simulation time: 0 hr 21 min 18 sec) 
Heartbeat CPU  0 instructions:  512000000 cycles:  432382099 heartbeat IPC: 1.13997 cumulative IPC: 1.08802 (Simulation time: 0 hr 21 min 20 sec) 
Heartbeat CPU  0 instructions:  513000002 cycles:  433263596 heartbeat IPC: 1.13444 cumulative IPC: 1.08813 (Simulation time: 0 hr 21 min 23 sec) 
Heartbeat CPU  0 instructions:  514000000 cycles:  434144751 heartbeat IPC: 1.13487 cumulative IPC: 1.08824 (Simulation time: 0 hr 21 min 26 sec) 
Heartbeat CPU  0 instructions:  515000000 cycles:  435023751 heartbeat IPC: 1.13766 cumulative IPC: 1.08835 (Simulation time: 0 hr 21 min 28 sec) 
Heartbeat CPU  0 instructions:  516000000 cycles:  435906799 heartbeat IPC: 1.13244 cumulative IPC: 1.08845 (Simulation time: 0 hr 21 min 31 sec) 
Heartbeat CPU  0 instructions:  517000002 cycles:  436784658 heartbeat IPC: 1.13914 cumulative IPC: 1.08857 (Simulation time: 0 hr 21 min 33 sec) 
Heartbeat CPU  0 instructions:  518000000 cycles:  437627680 heartbeat IPC: 1.18621 cumulative IPC: 1.08879 (Simulation time: 0 hr 21 min 36 sec) 
Heartbeat CPU  0 instructions:  519000003 cycles:  438497857 heartbeat IPC: 1.14919 cumulative IPC: 1.08892 (Simulation time: 0 hr 21 min 38 sec) 
Heartbeat CPU  0 instructions:  520000000 cycles:  439376101 heartbeat IPC: 1.13863 cumulative IPC: 1.08904 (Simulation time: 0 hr 21 min 41 sec) 
Heartbeat CPU  0 instructions:  521000000 cycles:  440253478 heartbeat IPC: 1.13976 cumulative IPC: 1.08915 (Simulation time: 0 hr 21 min 43 sec) 
Heartbeat CPU  0 instructions:  522000003 cycles:  441138115 heartbeat IPC: 1.13041 cumulative IPC: 1.08924 (Simulation time: 0 hr 21 min 46 sec) 
Heartbeat CPU  0 instructions:  523000001 cycles:  442015440 heartbeat IPC: 1.13983 cumulative IPC: 1.08936 (Simulation time: 0 hr 21 min 48 sec) 
Heartbeat CPU  0 instructions:  524000000 cycles:  442897273 heartbeat IPC: 1.13400 cumulative IPC: 1.08946 (Simulation time: 0 hr 21 min 51 sec) 
Heartbeat CPU  0 instructions:  525000002 cycles:  443774862 heartbeat IPC: 1.13949 cumulative IPC: 1.08957 (Simulation time: 0 hr 21 min 54 sec) 
Heartbeat CPU  0 instructions:  526000002 cycles:  444658203 heartbeat IPC: 1.13207 cumulative IPC: 1.08967 (Simulation time: 0 hr 21 min 56 sec) 
Heartbeat CPU  0 instructions:  527000000 cycles:  445539457 heartbeat IPC: 1.13474 cumulative IPC: 1.08977 (Simulation time: 0 hr 21 min 59 sec) 
Heartbeat CPU  0 instructions:  528000000 cycles:  446395938 heartbeat IPC: 1.16757 cumulative IPC: 1.08994 (Simulation time: 0 hr 22 min 1 sec) 
[...]
Heartbeat CPU  0 instructions:  540000000 cycles:  456932358 heartbeat IPC: 1.09900 cumulative IPC: 1.09122 (Simulation time: 0 hr 22 min 33 sec) 
Heartbeat CPU  0 instructions:  541000002 cycles:  457961334 heartbeat IPC: 0.97184 cumulative IPC: 1.09092 (Simulation time: 0 hr 22 min 36 sec) 
Heartbeat CPU  0 instructions:  542000003 cycles:  458985379 heartbeat IPC: 0.97652 cumulative IPC: 1.09063 (Simulation time: 0 hr 22 min 39 sec) 
Heartbeat CPU  0 instructions:  543000002 cycles:  460008809 heartbeat IPC: 0.97711 cumulative IPC: 1.09034 (Simulation time: 0 hr 22 min 41 sec) 
Heartbeat CPU  0 instructions:  544000000 cycles:  461032847 heartbeat IPC: 0.97652 cumulative IPC: 1.09005 (Simulation time: 0 hr 22 min 44 sec) 
Heartbeat CPU  0 instructions:  545000000 cycles:  462055544 heartbeat IPC: 0.97781 cumulative IPC: 1.08977 (Simulation time: 0 hr 22 min 47 sec) 
Heartbeat CPU  0 instructions:  546000001 cycles:  463080585 heartbeat IPC: 0.97557 cumulative IPC: 1.08949 (Simulation time: 0 hr 22 min 50 sec) 
Heartbeat CPU  0 instructions:  547000002 cycles:  464102710 heartbeat IPC: 0.97835 cumulative IPC: 1.08921 (Simulation time: 0 hr 22 min 53 sec) 
Heartbeat CPU  0 instructions:  548000000 cycles:  465127193 heartbeat IPC: 0.97610 cumulative IPC: 1.08893 (Simulation time: 0 hr 22 min 55 sec) 
Heartbeat CPU  0 instructions:  549000003 cycles:  466149293 heartbeat IPC: 0.97838 cumulative IPC: 1.08865 (Simulation time: 0 hr 22 min 58 sec) 
Heartbeat CPU  0 instructions:  550000000 cycles:  467173435 heartbeat IPC: 0.97642 cumulative IPC: 1.08838 (Simulation time: 0 hr 23 min 1 sec) 
Heartbeat CPU  0 instructions:  551000002 cycles:  468219333 heartbeat IPC: 0.95612 cumulative IPC: 1.08804 (Simulation time: 0 hr 23 min 4 sec) 
Heartbeat CPU  0 instructions:  552000000 cycles:  469242056 heartbeat IPC: 0.97778 cumulative IPC: 1.08777 (Simulation time: 0 hr 23 min 7 sec) 
Heartbeat CPU  0 instructions:  553000000 cycles:  470265573 heartbeat IPC: 0.97702 cumulative IPC: 1.08750 (Simulation time: 0 hr 23 min 9 sec) 
Heartbeat CPU  0 instructions:  554000001 cycles:  471288744 heartbeat IPC: 0.97735 cumulative IPC: 1.08723 (Simulation time: 0 hr 23 min 12 sec) 
Heartbeat CPU  0 instructions:  555000001 cycles:  472311244 heartbeat IPC: 0.97800 cumulative IPC: 1.08696 (Simulation time: 0 hr 23 min 15 sec) 
Heartbeat CPU  0 instructions:  556000000 cycles:  473334367 heartbeat IPC: 0.97740 cumulative IPC: 1.08670 (Simulation time: 0 hr 23 min 18 sec) 
Heartbeat CPU  0 instructions:  557000001 cycles:  474357968 heartbeat IPC: 0.97694 cumulative IPC: 1.08643 (Simulation time: 0 hr 23 min 21 sec) 
Heartbeat CPU  0 instructions:  558000001 cycles:  475382686 heartbeat IPC: 0.97588 cumulative IPC: 1.08616 (Simulation time: 0 hr 23 min 24 sec) 
Heartbeat CPU  0 instructions:  559000000 cycles:  476404915 heartbeat IPC: 0.97825 cumulative IPC: 1.08590 (Simulation time: 0 hr 23 min 27 sec) 
Heartbeat CPU  0 instructions:  560000000 cycles:  477426706 heartbeat IPC: 0.97867 cumulative IPC: 1.08564 (Simulation time: 0 hr 23 min 30 sec) 
Heartbeat CPU  0 instructions:  561000000 cycles:  478464984 heartbeat IPC: 0.96313 cumulative IPC: 1.08534 (Simulation time: 0 hr 23 min 33 sec) 
Heartbeat CPU  0 instructions:  562000002 cycles:  479490013 heartbeat IPC: 0.97558 cumulative IPC: 1.08508 (Simulation time: 0 hr 23 min 36 sec) 
Heartbeat CPU  0 instructions:  563000003 cycles:  480512318 heartbeat IPC: 0.97818 cumulative IPC: 1.08482 (Simulation time: 0 hr 23 min 39 sec) 
Heartbeat CPU  0 instructions:  564000000 cycles:  481539029 heartbeat IPC: 0.97398 cumulative IPC: 1.08455 (Simulation time: 0 hr 23 min 41 sec) 
Heartbeat CPU  0 instructions:  565000000 cycles:  482560624 heartbeat IPC: 0.97886 cumulative IPC: 1.08430 (Simulation time: 0 hr 23 min 44 sec) 
Heartbeat CPU  0 instructions:  566000003 cycles:  483584133 heartbeat IPC: 0.97703 cumulative IPC: 1.08405 (Simulation time: 0 hr 23 min 47 sec) 
Heartbeat CPU  0 instructions:  567000003 cycles:  484607740 heartbeat IPC: 0.97694 cumulative IPC: 1.08379 (Simulation time: 0 hr 23 min 50 sec) 
Heartbeat CPU  0 instructions:  568000000 cycles:  485628623 heartbeat IPC: 0.97954 cumulative IPC: 1.08355 (Simulation time: 0 hr 23 min 53 sec) 
Heartbeat CPU  0 instructions:  569000000 cycles:  486653519 heartbeat IPC: 0.97571 cumulative IPC: 1.08329 (Simulation time: 0 hr 23 min 56 sec) 
Heartbeat CPU  0 instructions:  570000003 cycles:  487676504 heartbeat IPC: 0.97753 cumulative IPC: 1.08304 (Simulation time: 0 hr 23 min 59 sec) 
Heartbeat CPU  0 instructions:  571000000 cycles:  488703292 heartbeat IPC: 0.97391 cumulative IPC: 1.08278 (Simulation time: 0 hr 24 min 2 sec) 
Heartbeat CPU  0 instructions:  572000000 cycles:  489744870 heartbeat IPC: 0.96008 cumulative IPC: 1.08249 (Simulation time: 0 hr 24 min 5 sec) 
Heartbeat CPU  0 instructions:  573000002 cycles:  490766991 heartbeat IPC: 0.97836 cumulative IPC: 1.08225 (Simulation time: 0 hr 24 min 8 sec) 
Heartbeat CPU  0 instructions:  574000000 cycles:  491786224 heartbeat IPC: 0.98113 cumulative IPC: 1.08201 (Simulation time: 0 hr 24 min 10 sec) 
Heartbeat CPU  0 instructions:  575000003 cycles:  492807718 heartbeat IPC: 0.97896 cumulative IPC: 1.08177 (Simulation time: 0 hr 24 min 13 sec) 
Heartbeat CPU  0 instructions:  576000000 cycles:  493828885 heartbeat IPC: 0.97927 cumulative IPC: 1.08153 (Simulation time: 0 hr 24 min 16 sec) 
Heartbeat CPU  0 instructions:  577000002 cycles:  494851033 heartbeat IPC: 0.97833 cumulative IPC: 1.08130 (Simulation time: 0 hr 24 min 19 sec) 
Heartbeat CPU  0 instructions:  578000002 cycles:  495872000 heartbeat IPC: 0.97946 cumulative IPC: 1.08106 (Simulation time: 0 hr 24 min 22 sec) 
Heartbeat CPU  0 instructions:  579000001 cycles:  496892713 heartbeat IPC: 0.97971 cumulative IPC: 1.08083 (Simulation time: 0 hr 24 min 25 sec) 
Heartbeat CPU  0 instructions:  580000000 cycles:  497915697 heartbeat IPC: 0.97753 cumulative IPC: 1.08059 (Simulation time: 0 hr 24 min 27 sec) 
Heartbeat CPU  0 instructions:  581000000 cycles:  498937305 heartbeat IPC: 0.97885 cumulative IPC: 1.08036 (Simulation time: 0 hr 24 min 30 sec) 
Heartbeat CPU  0 instructions:  582000002 cycles:  499977548 heartbeat IPC: 0.96132 cumulative IPC: 1.08008 (Simulation time: 0 hr 24 min 33 sec) 
Heartbeat CPU  0 instructions:  583000000 cycles:  501004266 heartbeat IPC: 0.97398 cumulative IPC: 1.07983 (Simulation time: 0 hr 24 min 36 sec) 
Heartbeat CPU  0 instructions:  584000000 cycles:  502028341 heartbeat IPC: 0.97649 cumulative IPC: 1.07960 (Simulation time: 0 hr 24 min 39 sec) 
Heartbeat CPU  0 instructions:  585000001 cycles:  503051313 heartbeat IPC: 0.97754 cumulative IPC: 1.07937 (Simulation time: 0 hr 24 min 42 sec) 
Heartbeat CPU  0 instructions:  586000002 cycles:  504071126 heartbeat IPC: 0.98057 cumulative IPC: 1.07914 (Simulation time: 0 hr 24 min 45 sec) 
Heartbeat CPU  0 instructions:  587000002 cycles:  505093656 heartbeat IPC: 0.97797 cumulative IPC: 1.07891 (Simulation time: 0 hr 24 min 48 sec) 
Heartbeat CPU  0 instructions:  588000000 cycles:  506116285 heartbeat IPC: 0.97787 cumulative IPC: 1.07869 (Simulation time: 0 hr 24 min 51 sec) 
Heartbeat CPU  0 instructions:  589000002 cycles:  507139980 heartbeat IPC: 0.97686 cumulative IPC: 1.07846 (Simulation time: 0 hr 24 min 53 sec) 
Heartbeat CPU  0 instructions:  590000002 cycles:  508161745 heartbeat IPC: 0.97870 cumulative IPC: 1.07823 (Simulation time: 0 hr 24 min 56 sec) 
Heartbeat CPU  0 instructions:  591000001 cycles:  509187179 heartbeat IPC: 0.97520 cumulative IPC: 1.07800 (Simulation time: 0 hr 24 min 59 sec) 
Heartbeat CPU  0 instructions:  592000000 cycles:  510205288 heartbeat IPC: 0.98221 cumulative IPC: 1.07779 (Simulation time: 0 hr 25 min 2 sec) 
Heartbeat CPU  0 instructions:  593000003 cycles:  511130784 heartbeat IPC: 1.08050 cumulative IPC: 1.07779 (Simulation time: 0 hr 25 min 5 sec) 
Heartbeat CPU  0 instructions:  594000003 cycles:  512061134 heartbeat IPC: 1.07486 cumulative IPC: 1.07779 (Simulation time: 0 hr 25 min 7 sec) 
Heartbeat CPU  0 instructions:  595000000 cycles:  512992023 heartbeat IPC: 1.07424 cumulative IPC: 1.07778 (Simulation time: 0 hr 25 min 10 sec) 
Heartbeat CPU  0 instructions:  596000000 cycles:  513916737 heartbeat IPC: 1.08142 cumulative IPC: 1.07779 (Simulation time: 0 hr 25 min 12 sec) 
Heartbeat CPU  0 instructions:  597000003 cycles:  514845377 heartbeat IPC: 1.07685 cumulative IPC: 1.07778 (Simulation time: 0 hr 25 min 15 sec) 
Heartbeat CPU  0 instructions:  598000003 cycles:  515773763 heartbeat IPC: 1.07714 cumulative IPC: 1.07778 (Simulation time: 0 hr 25 min 17 sec) 
Heartbeat CPU  0 instructions:  599000003 cycles:  516704383 heartbeat IPC: 1.07455 cumulative IPC: 1.07778 (Simulation time: 0 hr 25 min 20 sec) 
Heartbeat CPU  0 instructions:  600000000 cycles:  517598024 heartbeat IPC: 1.11901 cumulative IPC: 1.07785 (Simulation time: 0 hr 25 min 22 sec) 
Finished CPU 0 instructions: 500000003 cycles: 463884352 cumulative IPC: 1.07785 (Simulation time: 0 hr 25 min 22 sec) 

ChampSim completed all CPUs

[ROI Statistics]
Core_0_instructions 500000003
Core_0_cycles 463884352
Core_0_IPC 1.07785

Core_0_branch_prediction_accuracy 99.13980
Core_0_branch_MPKI 0.20639
Core_0_average_ROB_occupancy_at_mispredict 243.25957

Core_0_L1D_total_access 146875135
Core_0_L1D_total_hit 141553257
Core_0_L1D_total_miss 5321878
Core_0_L1D_loads 134590809
Core_0_L1D_load_hit 130571151
Core_0_L1D_load_miss 4019658
Core_0_L1D_RFOs 12284326
Core_0_L1D_RFO_hit 10982106
Core_0_L1D_RFO_miss 1302220
Core_0_L1D_prefetches 0
Core_0_L1D_prefetch_hit 0
Core_0_L1D_prefetch_miss 0
Core_0_L1D_writebacks 0
Core_0_L1D_writeback_hit 0
Core_0_L1D_writeback_miss 0
Core_0_L1D_prefetch_requested 0
Core_0_L1D_prefetch_dropped 0
Core_0_L1D_prefetch_issued 0
Core_0_L1D_prefetch_filled 0
Core_0_L1D_prefetch_useful 0
Core_0_L1D_prefetch_useless 0
Core_0_L1D_prefetch_late 0
Core_0_L1D_average_miss_latency 54.85258

Core_0_L1D_rq_access 197258605
Core_0_L1D_rq_forward 0
Core_0_L1D_rq_merged 61565824
Core_0_L1D_rq_to_cache 135692781
Core_0_L1D_rq_full 0

Core_0_L1D_wq_access 16646357
Core_0_L1D_wq_forward 0
Core_0_L1D_wq_merged 0
Core_0_L1D_wq_to_cache 16646357
Core_0_L1D_wq_full 13644

Core_0_L1D_pq_access 0
Core_0_L1D_pq_forward 0
Core_0_L1D_pq_merged 0
Core_0_L1D_pq_to_cache 0
Core_0_L1D_pq_full 0

Core_0_L1D_acc_epochs 501324
Core_0_L1D_acc_level_0 501324
Core_0_L1D_acc_level_1 0
Core_0_L1D_acc_level_2 0
Core_0_L1D_acc_level_3 0
Core_0_L1D_acc_level_4 0
Core_0_L1D_acc_level_5 0
Core_0_L1D_acc_level_6 0
Core_0_L1D_acc_level_7 0
Core_0_L1D_acc_level_8 0
Core_0_L1D_acc_level_9 0

Core_0_L1I_total_access 121093844
Core_0_L1I_total_hit 121093546
Core_0_L1I_total_miss 298
Core_0_L1I_loads 121093844
Core_0_L1I_load_hit 121093546
Core_0_L1I_load_miss 298
Core_0_L1I_RFOs 0
Core_0_L1I_RFO_hit 0
Core_0_L1I_RFO_miss 0
Core_0_L1I_prefetches 0
Core_0_L1I_prefetch_hit 0
Core_0_L1I_prefetch_miss 0
Core_0_L1I_writebacks 0
Core_0_L1I_writeback_hit 0
Core_0_L1I_writeback_miss 0
Core_0_L1I_prefetch_requested 0
Core_0_L1I_prefetch_dropped 0
Core_0_L1I_prefetch_issued 0
Core_0_L1I_prefetch_filled 0
Core_0_L1I_prefetch_useful 0
Core_0_L1I_prefetch_useless 0
Core_0_L1I_prefetch_late 0
Core_0_L1I_average_miss_latency 135.25503

Core_0_L1I_rq_access 500000208
Core_0_L1I_rq_forward 0
Core_0_L1I_rq_merged 378905607
Core_0_L1I_rq_to_cache 121094601
Core_0_L1I_rq_full 0

Core_0_L1I_wq_access 0
Core_0_L1I_wq_forward 0
Core_0_L1I_wq_merged 0
Core_0_L1I_wq_to_cache 0
Core_0_L1I_wq_full 0

Core_0_L1I_pq_access 0
Core_0_L1I_pq_forward 0
Core_0_L1I_pq_merged 0
Core_0_L1I_pq_to_cache 0
Core_0_L1I_pq_full 0

Core_0_L1I_acc_epochs 501324
Core_0_L1I_acc_level_0 501324
Core_0_L1I_acc_level_1 0
Core_0_L1I_acc_level_2 0
Core_0_L1I_acc_level_3 0
Core_0_L1I_acc_level_4 0
Core_0_L1I_acc_level_5 0
Core_0_L1I_acc_level_6 0
Core_0_L1I_acc_level_7 0
Core_0_L1I_acc_level_8 0
Core_0_L1I_acc_level_9 0

Core_0_L2C_total_access 11158456
Core_0_L2C_total_hit 7380522
Core_0_L2C_total_miss 3777934
Core_0_L2C_loads 4019906
Core_0_L2C_load_hit 3089529
Core_0_L2C_load_miss 930377
Core_0_L2C_RFOs 1302081
Core_0_L2C_RFO_hit 468155
Core_0_L2C_RFO_miss 833926
Core_0_L2C_prefetches 4165588
Core_0_L2C_prefetch_hit 2152044
Core_0_L2C_prefetch_miss 2013544
Core_0_L2C_writebacks 1670881
Core_0_L2C_writeback_hit 1670794
Core_0_L2C_writeback_miss 87
Core_0_L2C_prefetch_requested 22944739
Core_0_L2C_prefetch_dropped 3285
Core_0_L2C_prefetch_issued 22941454
Core_0_L2C_prefetch_filled 2360737
Core_0_L2C_prefetch_useful 2359041
Core_0_L2C_prefetch_useless 1693
Core_0_L2C_prefetch_late 5805
Core_0_L2C_average_miss_latency 75.39130

Core_0_L2C_rq_access 5322177
Core_0_L2C_rq_forward 0
Core_0_L2C_rq_merged 0
Core_0_L2C_rq_to_cache 5321988
Core_0_L2C_rq_full 0

Core_0_L2C_wq_access 1670881
Core_0_L2C_wq_forward 299
Core_0_L2C_wq_merged 0
Core_0_L2C_wq_to_cache 1670881
Core_0_L2C_wq_full 0

Core_0_L2C_pq_access 22941454
Core_0_L2C_pq_forward 0
Core_0_L2C_pq_merged 31357
Core_0_L2C_pq_to_cache 22909987
Core_0_L2C_pq_full 0

Core_0_L2C_acc_epochs 501324
Core_0_L2C_acc_level_0 43669
Core_0_L2C_acc_level_1 10106
Core_0_L2C_acc_level_2 10137
Core_0_L2C_acc_level_3 5619
Core_0_L2C_acc_level_4 12526
Core_0_L2C_acc_level_5 15962
Core_0_L2C_acc_level_6 9943
Core_0_L2C_acc_level_7 19043
Core_0_L2C_acc_level_8 39341
Core_0_L2C_acc_level_9 334978

Core_0_LLC_total_access 19759032
Core_0_LLC_total_hit 15721774
Core_0_LLC_total_miss 4037258
Core_0_LLC_loads 924572
Core_0_LLC_load_hit 855033
Core_0_LLC_load_miss 69539
Core_0_LLC_RFOs 833926
Core_0_LLC_RFO_hit 60158
Core_0_LLC_RFO_miss 773768
Core_0_LLC_prefetches 17033418
Core_0_LLC_prefetch_hit 14434419
Core_0_LLC_prefetch_miss 2598999
Core_0_LLC_writebacks 967116
Core_0_LLC_writeback_hit 372164
Core_0_LLC_writeback_miss 594952
Core_0_LLC_prefetch_requested 0
Core_0_LLC_prefetch_dropped 0
Core_0_LLC_prefetch_issued 0
Core_0_LLC_prefetch_filled 3063806
Core_0_LLC_prefetch_useful 966284
Core_0_LLC_prefetch_useless 2075643
Core_0_LLC_prefetch_late 2833
Core_0_LLC_average_miss_latency 196.04509

Core_0_LLC_rq_access 1758499
Core_0_LLC_rq_forward 0
Core_0_LLC_rq_merged 0
Core_0_LLC_rq_to_cache 1758499
Core_0_LLC_rq_full 0

Core_0_LLC_wq_access 967116
Core_0_LLC_wq_forward 0
Core_0_LLC_wq_merged 0
Core_0_LLC_wq_to_cache 967116
Core_0_LLC_wq_full 0

Core_0_LLC_pq_access 20753668
Core_0_LLC_pq_forward 0
Core_0_LLC_pq_merged 8370
Core_0_LLC_pq_to_cache 20745298
Core_0_LLC_pq_full 0

Core_0_LLC_acc_epochs 505467
Core_0_LLC_acc_level_0 73114
Core_0_LLC_acc_level_1 61328
Core_0_LLC_acc_level_2 150048
Core_0_LLC_acc_level_3 74212
Core_0_LLC_acc_level_4 34527
Core_0_LLC_acc_level_5 32955
Core_0_LLC_acc_level_6 21473
Core_0_LLC_acc_level_7 15976
Core_0_LLC_acc_level_8 10291
Core_0_LLC_acc_level_9 31543

Core_0_major_page_fault 0
Core_0_minor_page_fault 14596

spp.pref.total 22944739
spp.pref.at_L2 2570180
spp.pref.at_LLC 20374559

spp.depth.max 11
spp.depth.min 0
spp.depth.avg 5

spp.breadth.max 2
spp.breadth.min 0
spp.breadth.avg 0

delta_1 21820806
delta_16 934666
delta_-15 784502
delta_32 117765
delta_-47 83958
delta_-31 75254
delta_31 57966
delta_-30 22719
delta_-1 8451
delta_-16 3571
delta_-8 2553
delta_4 2447
delta_3 2391
delta_-10 2281
delta_46 2139
delta_19 1811
delta_2 1645
delta_-45 1241
delta_-2 1209
delta_-5 1131
delta_25 1081
delta_-38 973
delta_-44 898
delta_-9 802
delta_15 773
delta_63 649
delta_-4 648
delta_34 539
delta_-60 522
delta_-29 496
delta_-18 483
delta_-3 471
delta_7 404
delta_-34 377
delta_10 376
delta_47 365
delta_-48 364
delta_29 359
delta_13 356
delta_-40 337
delta_41 336
delta_-13 321
delta_-46 317
delta_50 266
delta_9 256
delta_-6 244
delta_57 235
delta_-11 158
delta_48 146
delta_-14 140
delta_61 137
delta_12 84
delta_17 77
delta_6 74
delta_-37 62
delta_-32 61
delta_-43 46
delta_23 45
delta_18 44
delta_-61 39
delta_-7 6
delta_20 6
delta_-21 3

depth_1_delta_1 3663178
depth_1_delta_16 275569
depth_1_delta_-15 228464
depth_1_delta_32 38214
depth_1_delta_-31 32730
depth_1_delta_31 32321
depth_1_delta_-47 23526
depth_1_delta_-30 15517
depth_1_delta_-1 7120
depth_1_delta_-16 3367
depth_1_delta_3 1984
depth_1_delta_-8 1845
depth_1_delta_46 1785
depth_1_delta_-10 1729
depth_1_delta_4 1717
depth_1_delta_19 1704
depth_1_delta_2 1238
depth_1_delta_-45 1185
depth_1_delta_-2 1114
depth_1_delta_25 1073
depth_1_delta_-5 824
depth_1_delta_-9 764
depth_1_delta_15 759
depth_1_delta_-44 743
depth_1_delta_-38 666
depth_1_delta_63 649
depth_1_delta_-4 572
depth_1_delta_34 526
depth_1_delta_-60 520
depth_1_delta_-29 496
depth_1_delta_-3 437
depth_1_delta_7 396
depth_1_delta_-18 375
depth_1_delta_47 362
depth_1_delta_-48 362
depth_1_delta_29 358
depth_1_delta_-34 340
depth_1_delta_-46 317
depth_1_delta_13 313
depth_1_delta_41 295
depth_1_delta_-40 281
depth_1_delta_-13 279
depth_1_delta_10 276
depth_1_delta_9 256
depth_1_delta_50 252
depth_1_delta_-6 244
depth_1_delta_57 235
depth_1_delta_-11 158
depth_1_delta_48 146
depth_1_delta_-14 140
depth_1_delta_61 137
depth_1_delta_12 77
depth_1_delta_17 77
depth_1_delta_6 74
depth_1_delta_-32 59
depth_1_delta_-37 55
depth_1_delta_23 45
depth_1_delta_-43 42
depth_1_delta_-61 37
depth_1_delta_18 32
depth_1_delta_-7 6
depth_1_delta_20 4
depth_1_delta_-21 3
depth_2_delta_1 3531882
depth_2_delta_16 237298
depth_2_delta_-15 197013
depth_2_delta_32 31075
depth_2_delta_-31 23283
depth_2_delta_-47 18671
depth_2_delta_31 14389
depth_2_delta_-30 6987
depth_2_delta_4 719
depth_2_delta_-1 688
depth_2_delta_-8 627
depth_2_delta_-10 552
depth_2_delta_3 397
depth_2_delta_2 383
depth_2_delta_46 352
depth_2_delta_-38 307
depth_2_delta_-5 270
depth_2_delta_-16 204
depth_2_delta_-44 155
depth_2_delta_-18 108
depth_2_delta_19 101
depth_2_delta_10 100
depth_2_delta_-2 95
depth_2_delta_-4 76
depth_2_delta_-45 56
depth_2_delta_13 43
depth_2_delta_-13 42
depth_2_delta_-40 42
depth_2_delta_41 41
depth_2_delta_-34 37
depth_2_delta_-9 34
depth_2_delta_-3 34
depth_2_delta_15 14
depth_2_delta_50 14
depth_2_delta_34 13
depth_2_delta_18 12
depth_2_delta_25 8
depth_2_delta_7 8
depth_2_delta_12 7
depth_2_delta_-37 7
depth_2_delta_-43 4
depth_2_delta_47 3
depth_2_delta_-32 2
depth_2_delta_-60 2
depth_2_delta_20 2
depth_2_delta_-48 2
depth_2_delta_-61 2
depth_2_delta_29 1
depth_3_delta_1 3382030
depth_3_delta_16 182221
depth_3_delta_-15 148438
depth_3_delta_32 20290
depth_3_delta_-47 16236
depth_3_delta_-31 13544
depth_3_delta_31 7951
depth_3_delta_-1 633
depth_3_delta_-30 214
depth_3_delta_-8 79
depth_3_delta_-5 37
depth_3_delta_2 24
depth_3_delta_-40 12
depth_3_delta_4 11
depth_3_delta_3 10
depth_3_delta_19 6
depth_3_delta_-9 4
depth_3_delta_46 2
depth_4_delta_1 3213482
depth_4_delta_16 124857
depth_4_delta_-15 104996
depth_4_delta_32 14628
depth_4_delta_-47 12927
depth_4_delta_-31 4013
depth_4_delta_31 2618
depth_4_delta_-1 10
depth_4_delta_-8 2
depth_4_delta_-40 2
depth_4_delta_-30 1
depth_5_delta_1 2898835
depth_5_delta_16 78629
depth_5_delta_-15 72261
depth_5_delta_32 9965
depth_5_delta_-47 8953
depth_5_delta_-31 1410
depth_5_delta_31 650
depth_6_delta_1 2191522
depth_6_delta_16 31514
depth_6_delta_-15 28428
depth_6_delta_-47 3449
depth_6_delta_32 3378
depth_6_delta_-31 269
depth_6_delta_31 37
depth_7_delta_1 1369631
depth_7_delta_-15 3958
depth_7_delta_16 3683
depth_7_delta_32 214
depth_7_delta_-47 196
depth_7_delta_-31 5
depth_8_delta_1 929297
depth_8_delta_-15 697
depth_8_delta_16 671
depth_8_delta_32 1
depth_9_delta_1 512249
depth_9_delta_-15 232
depth_9_delta_16 213
depth_10_delta_1 128429
depth_10_delta_-15 15
depth_10_delta_16 11
depth_11_delta_1 271

Channel_0_RQ_row_buffer_hit 698705
Channel_0_RQ_row_buffer_miss 2743581
Channel_0_WQ_row_buffer_hit 262970
Channel_0_WQ_row_buffer_miss 701106
Channel_0_WQ_full 0
Channel_0_dbus_congested 1053587

avg_congested_cycle 4

DRAM_bw_pochs 2021868
DRAM_bw_level_0 1970770
DRAM_bw_level_1 47800
DRAM_bw_level_2 2867
DRAM_bw_level_3 431
