*************************************************
   ChampSim Multicore Out-of-Order Simulator
   Last compiled: Dec 11 2024 17:59:53
*************************************************
parsing config file: /home/functionmain/桌面/Pythia/config/nopref.ini

trace_0 /home/functionmain/桌面/Pythia/traces/437.leslie3d-265B.champsimtrace.xz
adding L2C_PREFETCHER: NONE
Initialize SHIP state
warmup_instructions 100000000
simulation_instructions 500000000
champsim_seed 223
measure_ipc 0
measure_ipc_epoch 1000
measure_dram_bw 1
measure_dram_bw_epoch 256
measure_cache_acc 1
measure_cache_acc_epoch 1024
l1d_perfect 0
l2c_perfect 0
llc_perfect 0
l1d_semi_perfect 0
l2c_semi_perfect 0
llc_semi_perfect 0
semi_perfect_cache_page_buffer_size 64

num_cpus 1
cpu_freq 4000
dram_io_freq 600
page_size 4096
block_size 64
max_read_per_cycle 8
max_fill_per_cycle 1
dram_channels 1
log2_dram_channels 0
dram_ranks 1
dram_banks 8
dram_rows 65536
dram_columns 128
dram_row_size 8
dram_size 4096
dram_pages 1048576

fetch_width 6
decode_width 6
exec_width 4
lq_width 2
sq_width 2
retire_width 4
scheduler_size 128
branch_mispredict_penalty 20
rob_size 256
lq_size 72
sq_size 56
num_instr_destinations_sparc 4
num_instr_destinations 2
num_instr_sources 4

itlb_set 16
itlb_way 8
itlb_rq_size 16
itlb_wq_size 16
itlb_pq_size 0
itlb_mshr_size 8
itlb_latency 1

dtlb_set 16
dtlb_way 4
dtlb_rq_size 16
dtlb_wq_size 16
dtlb_pq_size 0
dtlb_mshr_size 8
dtlb_latency 1

stlb_set 128
stlb_way 12
stlb_rq_size 32
stlb_wq_size 32
stlb_pq_size 0
stlb_mshr_size 16
stlb_latency 8

l1i_size 32
l1i_set 64
l1i_way 8
l1i_rq_size 64
l1i_wq_size 64
l1i_pq_size 8
l1i_mshr_size 8
l1i_latency 1

l1d_size 32
l1d_set 64
l1d_way 8
l1d_rq_size 64
l1d_wq_size 64
l1d_pq_size 8
l1d_mshr_size 16
l1d_latency 4

l2c_size 256
l2c_set 512
l2c_way 8
l2c_rq_size 32
l2c_wq_size 32
l2c_pq_size 32
l2c_mshr_size 32
l2c_latency 10

llc_size 2048
llc_set 2048
llc_way 16
llc_rq_size 32
llc_wq_size 32
llc_pq_size 32
llc_mshr_size 64
llc_latency 20

dram_channel_width 8
dram_wq_size 64
dram_rq_size 64
tRP 15
tRCD 15
tCAS 12.5
dram_dbus_turn_around_time 30
dram_write_high_wm 56
dram_write_low_wm 48
min_dram_writes_per_switch 16
dram_mtps 600
dram_dbus_return_time 53


Heartbeat CPU  0 instructions:    1000003 cycles:     501010 heartbeat IPC: 1.99597 cumulative IPC: 1.99597 (Simulation time: 0 hr 0 min 2 sec) 
Heartbeat CPU  0 instructions:    2000001 cycles:    1000547 heartbeat IPC: 2.00185 cumulative IPC: 1.99891 (Simulation time: 0 hr 0 min 3 sec) 
Heartbeat CPU  0 instructions:    3000001 cycles:    1500594 heartbeat IPC: 1.99981 cumulative IPC: 1.99921 (Simulation time: 0 hr 0 min 5 sec) 
Heartbeat CPU  0 instructions:    4000000 cycles:    2000536 heartbeat IPC: 2.00023 cumulative IPC: 1.99946 (Simulation time: 0 hr 0 min 7 sec) 
Heartbeat CPU  0 instructions:    5000003 cycles:    2499749 heartbeat IPC: 2.00316 cumulative IPC: 2.00020 (Simulation time: 0 hr 0 min 9 sec) 
Heartbeat CPU  0 instructions:    6000001 cycles:    3000056 heartbeat IPC: 1.99877 cumulative IPC: 1.99996 (Simulation time: 0 hr 0 min 10 sec) 
Heartbeat CPU  0 instructions:    7000002 cycles:    3498241 heartbeat IPC: 2.00729 cumulative IPC: 2.00101 (Simulation time: 0 hr 0 min 12 sec) 
Heartbeat CPU  0 instructions:    8000000 cycles:    3998689 heartbeat IPC: 1.99821 cumulative IPC: 2.00066 (Simulation time: 0 hr 0 min 14 sec) 
Heartbeat CPU  0 instructions:    9000003 cycles:    4496737 heartbeat IPC: 2.00784 cumulative IPC: 2.00145 (Simulation time: 0 hr 0 min 15 sec) 
Heartbeat CPU  0 instructions:   10000001 cycles:    4996816 heartbeat IPC: 1.99968 cumulative IPC: 2.00127 (Simulation time: 0 hr 0 min 17 sec) 
Heartbeat CPU  0 instructions:   11000002 cycles:    5494284 heartbeat IPC: 2.01018 cumulative IPC: 2.00208 (Simulation time: 0 hr 0 min 19 sec) 
Heartbeat CPU  0 instructions:   12000000 cycles:    5995365 heartbeat IPC: 1.99568 cumulative IPC: 2.00155 (Simulation time: 0 hr 0 min 21 sec) 
Heartbeat CPU  0 instructions:   13000002 cycles:    6492684 heartbeat IPC: 2.01079 cumulative IPC: 2.00225 (Simulation time: 0 hr 0 min 22 sec) 
Heartbeat CPU  0 instructions:   14000002 cycles:    6993388 heartbeat IPC: 1.99719 cumulative IPC: 2.00189 (Simulation time: 0 hr 0 min 24 sec) 
Heartbeat CPU  0 instructions:   15000000 cycles:    7490914 heartbeat IPC: 2.00994 cumulative IPC: 2.00243 (Simulation time: 0 hr 0 min 26 sec) 
Heartbeat CPU  0 instructions:   16000000 cycles:    7990652 heartbeat IPC: 2.00105 cumulative IPC: 2.00234 (Simulation time: 0 hr 0 min 28 sec) 
Heartbeat CPU  0 instructions:   17000003 cycles:    8489266 heartbeat IPC: 2.00557 cumulative IPC: 2.00253 (Simulation time: 0 hr 0 min 29 sec) 
Heartbeat CPU  0 instructions:   18000003 cycles:    8989090 heartbeat IPC: 2.00070 cumulative IPC: 2.00243 (Simulation time: 0 hr 0 min 31 sec) 
Heartbeat CPU  0 instructions:   19000003 cycles:    9488762 heartbeat IPC: 2.00131 cumulative IPC: 2.00237 (Simulation time: 0 hr 0 min 33 sec) 
Heartbeat CPU  0 instructions:   20000000 cycles:    9987872 heartbeat IPC: 2.00356 cumulative IPC: 2.00243 (Simulation time: 0 hr 0 min 34 sec) 
Heartbeat CPU  0 instructions:   21000000 cycles:   10488371 heartbeat IPC: 1.99801 cumulative IPC: 2.00222 (Simulation time: 0 hr 0 min 36 sec) 
Heartbeat CPU  0 instructions:   22000003 cycles:   10986749 heartbeat IPC: 2.00652 cumulative IPC: 2.00241 (Simulation time: 0 hr 0 min 38 sec) 
Heartbeat CPU  0 instructions:   23000003 cycles:   11487658 heartbeat IPC: 1.99637 cumulative IPC: 2.00215 (Simulation time: 0 hr 0 min 40 sec) 
Heartbeat CPU  0 instructions:   24000000 cycles:   11985961 heartbeat IPC: 2.00681 cumulative IPC: 2.00234 (Simulation time: 0 hr 0 min 41 sec) 
Heartbeat CPU  0 instructions:   25000002 cycles:   12487078 heartbeat IPC: 1.99555 cumulative IPC: 2.00207 (Simulation time: 0 hr 0 min 43 sec) 
Heartbeat CPU  0 instructions:   26000000 cycles:   12985269 heartbeat IPC: 2.00726 cumulative IPC: 2.00227 (Simulation time: 0 hr 0 min 45 sec) 
Heartbeat CPU  0 instructions:   27000000 cycles:   13487116 heartbeat IPC: 1.99264 cumulative IPC: 2.00191 (Simulation time: 0 hr 0 min 47 sec) 
Heartbeat CPU  0 instructions:   28000000 cycles:   13984601 heartbeat IPC: 2.01011 cumulative IPC: 2.00220 (Simulation time: 0 hr 0 min 48 sec) 
Heartbeat CPU  0 instructions:   29000000 cycles:   14485433 heartbeat IPC: 1.99668 cumulative IPC: 2.00201 (Simulation time: 0 hr 0 min 50 sec) 
Heartbeat CPU  0 instructions:   30000000 cycles:   14983357 heartbeat IPC: 2.00834 cumulative IPC: 2.00222 (Simulation time: 0 hr 0 min 52 sec) 
Heartbeat CPU  0 instructions:   31000002 cycles:   15483175 heartbeat IPC: 2.00073 cumulative IPC: 2.00217 (Simulation time: 0 hr 0 min 53 sec) 
Heartbeat CPU  0 instructions:   32000000 cycles:   15981735 heartbeat IPC: 2.00577 cumulative IPC: 2.00229 (Simulation time: 0 hr 0 min 55 sec) 
Heartbeat CPU  0 instructions:   33000000 cycles:   16480878 heartbeat IPC: 2.00343 cumulative IPC: 2.00232 (Simulation time: 0 hr 0 min 57 sec) 
Heartbeat CPU  0 instructions:   34000002 cycles:   16980066 heartbeat IPC: 2.00326 cumulative IPC: 2.00235 (Simulation time: 0 hr 0 min 59 sec) 
Heartbeat CPU  0 instructions:   35000002 cycles:   17478497 heartbeat IPC: 2.00630 cumulative IPC: 2.00246 (Simulation time: 0 hr 1 min 0 sec) 
Heartbeat CPU  0 instructions:   36000000 cycles:   17978233 heartbeat IPC: 2.00105 cumulative IPC: 2.00242 (Simulation time: 0 hr 1 min 2 sec) 
Heartbeat CPU  0 instructions:   37000000 cycles:   18475994 heartbeat IPC: 2.00900 cumulative IPC: 2.00260 (Simulation time: 0 hr 1 min 4 sec) 
Heartbeat CPU  0 instructions:   38000000 cycles:   18976716 heartbeat IPC: 1.99712 cumulative IPC: 2.00245 (Simulation time: 0 hr 1 min 6 sec) 
Heartbeat CPU  0 instructions:   39000000 cycles:   19475098 heartbeat IPC: 2.00649 cumulative IPC: 2.00256 (Simulation time: 0 hr 1 min 7 sec) 
Heartbeat CPU  0 instructions:   40000000 cycles:   19976112 heartbeat IPC: 1.99595 cumulative IPC: 2.00239 (Simulation time: 0 hr 1 min 9 sec) 
Heartbeat CPU  0 instructions:   41000000 cycles:   20474285 heartbeat IPC: 2.00733 cumulative IPC: 2.00251 (Simulation time: 0 hr 1 min 11 sec) 
Heartbeat CPU  0 instructions:   42000000 cycles:   20976098 heartbeat IPC: 1.99277 cumulative IPC: 2.00228 (Simulation time: 0 hr 1 min 12 sec) 
Heartbeat CPU  0 instructions:   43000003 cycles:   21473923 heartbeat IPC: 2.00874 cumulative IPC: 2.00243 (Simulation time: 0 hr 1 min 14 sec) 
Heartbeat CPU  0 instructions:   44000000 cycles:   21975258 heartbeat IPC: 1.99467 cumulative IPC: 2.00225 (Simulation time: 0 hr 1 min 16 sec) 
Heartbeat CPU  0 instructions:   45000003 cycles:   22473574 heartbeat IPC: 2.00676 cumulative IPC: 2.00235 (Simulation time: 0 hr 1 min 18 sec) 
Heartbeat CPU  0 instructions:   46000003 cycles:   22973767 heartbeat IPC: 1.99923 cumulative IPC: 2.00228 (Simulation time: 0 hr 1 min 19 sec) 
Heartbeat CPU  0 instructions:   47000001 cycles:   23472943 heartbeat IPC: 2.00330 cumulative IPC: 2.00231 (Simulation time: 0 hr 1 min 21 sec) 
Heartbeat CPU  0 instructions:   48000000 cycles:   23972794 heartbeat IPC: 2.00059 cumulative IPC: 2.00227 (Simulation time: 0 hr 1 min 23 sec) 
Heartbeat CPU  0 instructions:   49000000 cycles:   24472281 heartbeat IPC: 2.00205 cumulative IPC: 2.00227 (Simulation time: 0 hr 1 min 25 sec) 
Heartbeat CPU  0 instructions:   50000000 cycles:   24970838 heartbeat IPC: 2.00579 cumulative IPC: 2.00234 (Simulation time: 0 hr 1 min 26 sec) 
Heartbeat CPU  0 instructions:   51000003 cycles:   25470669 heartbeat IPC: 2.00068 cumulative IPC: 2.00230 (Simulation time: 0 hr 1 min 28 sec) 
Heartbeat CPU  0 instructions:   52000000 cycles:   25968444 heartbeat IPC: 2.00893 cumulative IPC: 2.00243 (Simulation time: 0 hr 1 min 30 sec) 
Heartbeat CPU  0 instructions:   53000001 cycles:   26468942 heartbeat IPC: 1.99801 cumulative IPC: 2.00235 (Simulation time: 0 hr 1 min 31 sec) 
Heartbeat CPU  0 instructions:   54000002 cycles:   26966903 heartbeat IPC: 2.00819 cumulative IPC: 2.00245 (Simulation time: 0 hr 1 min 33 sec) 
Heartbeat CPU  0 instructions:   55000001 cycles:   27467739 heartbeat IPC: 1.99666 cumulative IPC: 2.00235 (Simulation time: 0 hr 1 min 35 sec) 
Heartbeat CPU  0 instructions:   56000000 cycles:   27965352 heartbeat IPC: 2.00959 cumulative IPC: 2.00248 (Simulation time: 0 hr 1 min 37 sec) 
Heartbeat CPU  0 instructions:   57000002 cycles:   28466520 heartbeat IPC: 1.99534 cumulative IPC: 2.00235 (Simulation time: 0 hr 1 min 38 sec) 
Heartbeat CPU  0 instructions:   58000001 cycles:   28963529 heartbeat IPC: 2.01203 cumulative IPC: 2.00252 (Simulation time: 0 hr 1 min 40 sec) 
Heartbeat CPU  0 instructions:   59000003 cycles:   29464461 heartbeat IPC: 1.99628 cumulative IPC: 2.00241 (Simulation time: 0 hr 1 min 42 sec) 
Heartbeat CPU  0 instructions:   60000000 cycles:   29962844 heartbeat IPC: 2.00648 cumulative IPC: 2.00248 (Simulation time: 0 hr 1 min 44 sec) 
Heartbeat CPU  0 instructions:   61000003 cycles:   30463370 heartbeat IPC: 1.99790 cumulative IPC: 2.00240 (Simulation time: 0 hr 1 min 45 sec) 
Heartbeat CPU  0 instructions:   62000001 cycles:   30962630 heartbeat IPC: 2.00296 cumulative IPC: 2.00241 (Simulation time: 0 hr 1 min 47 sec) 
Heartbeat CPU  0 instructions:   63000003 cycles:   31462396 heartbeat IPC: 2.00094 cumulative IPC: 2.00239 (Simulation time: 0 hr 1 min 49 sec) 
Heartbeat CPU  0 instructions:   64000000 cycles:   31962286 heartbeat IPC: 2.00043 cumulative IPC: 2.00236 (Simulation time: 0 hr 1 min 51 sec) 
Heartbeat CPU  0 instructions:   65000001 cycles:   32461246 heartbeat IPC: 2.00417 cumulative IPC: 2.00239 (Simulation time: 0 hr 1 min 52 sec) 
Heartbeat CPU  0 instructions:   66000000 cycles:   32961888 heartbeat IPC: 1.99743 cumulative IPC: 2.00231 (Simulation time: 0 hr 1 min 54 sec) 
Heartbeat CPU  0 instructions:   67000003 cycles:   33460361 heartbeat IPC: 2.00613 cumulative IPC: 2.00237 (Simulation time: 0 hr 1 min 56 sec) 
Heartbeat CPU  0 instructions:   68000000 cycles:   33961653 heartbeat IPC: 1.99484 cumulative IPC: 2.00226 (Simulation time: 0 hr 1 min 57 sec) 
Heartbeat CPU  0 instructions:   69000002 cycles:   34460575 heartbeat IPC: 2.00433 cumulative IPC: 2.00229 (Simulation time: 0 hr 1 min 59 sec) 
Heartbeat CPU  0 instructions:   70000003 cycles:   34961281 heartbeat IPC: 1.99718 cumulative IPC: 2.00222 (Simulation time: 0 hr 2 min 1 sec) 
Heartbeat CPU  0 instructions:   71000001 cycles:   35459093 heartbeat IPC: 2.00879 cumulative IPC: 2.00231 (Simulation time: 0 hr 2 min 3 sec) 
Heartbeat CPU  0 instructions:   72000000 cycles:   35960271 heartbeat IPC: 1.99530 cumulative IPC: 2.00221 (Simulation time: 0 hr 2 min 4 sec) 
Heartbeat CPU  0 instructions:   73000001 cycles:   36457441 heartbeat IPC: 2.01139 cumulative IPC: 2.00233 (Simulation time: 0 hr 2 min 6 sec) 
Heartbeat CPU  0 instructions:   74000002 cycles:   36957898 heartbeat IPC: 1.99818 cumulative IPC: 2.00228 (Simulation time: 0 hr 2 min 8 sec) 
Heartbeat CPU  0 instructions:   75000000 cycles:   37455759 heartbeat IPC: 2.00859 cumulative IPC: 2.00236 (Simulation time: 0 hr 2 min 10 sec) 
Heartbeat CPU  0 instructions:   76000000 cycles:   37955503 heartbeat IPC: 2.00102 cumulative IPC: 2.00234 (Simulation time: 0 hr 2 min 11 sec) 
Heartbeat CPU  0 instructions:   77000003 cycles:   38454118 heartbeat IPC: 2.00556 cumulative IPC: 2.00239 (Simulation time: 0 hr 2 min 13 sec) 
Heartbeat CPU  0 instructions:   78000000 cycles:   38953193 heartbeat IPC: 2.00370 cumulative IPC: 2.00240 (Simulation time: 0 hr 2 min 15 sec) 
Heartbeat CPU  0 instructions:   79000002 cycles:   39452465 heartbeat IPC: 2.00292 cumulative IPC: 2.00241 (Simulation time: 0 hr 2 min 16 sec) 
Heartbeat CPU  0 instructions:   80000000 cycles:   39951355 heartbeat IPC: 2.00445 cumulative IPC: 2.00244 (Simulation time: 0 hr 2 min 18 sec) 
Heartbeat CPU  0 instructions:   81000002 cycles:   40451812 heartbeat IPC: 1.99818 cumulative IPC: 2.00238 (Simulation time: 0 hr 2 min 20 sec) 
Heartbeat CPU  0 instructions:   82000002 cycles:   40950081 heartbeat IPC: 2.00695 cumulative IPC: 2.00244 (Simulation time: 0 hr 2 min 22 sec) 
Heartbeat CPU  0 instructions:   83000000 cycles:   41451329 heartbeat IPC: 1.99502 cumulative IPC: 2.00235 (Simulation time: 0 hr 2 min 23 sec) 
Heartbeat CPU  0 instructions:   84000000 cycles:   41950113 heartbeat IPC: 2.00488 cumulative IPC: 2.00238 (Simulation time: 0 hr 2 min 25 sec) 
Heartbeat CPU  0 instructions:   85000000 cycles:   42451550 heartbeat IPC: 1.99427 cumulative IPC: 2.00228 (Simulation time: 0 hr 2 min 27 sec) 
Heartbeat CPU  0 instructions:   86000003 cycles:   42949594 heartbeat IPC: 2.00786 cumulative IPC: 2.00235 (Simulation time: 0 hr 2 min 29 sec) 
Heartbeat CPU  0 instructions:   87000000 cycles:   43451231 heartbeat IPC: 1.99347 cumulative IPC: 2.00224 (Simulation time: 0 hr 2 min 30 sec) 
Heartbeat CPU  0 instructions:   88000000 cycles:   43948735 heartbeat IPC: 2.01003 cumulative IPC: 2.00233 (Simulation time: 0 hr 2 min 32 sec) 
Heartbeat CPU  0 instructions:   89000003 cycles:   44449833 heartbeat IPC: 1.99562 cumulative IPC: 2.00226 (Simulation time: 0 hr 2 min 34 sec) 
Heartbeat CPU  0 instructions:   90000000 cycles:   44948129 heartbeat IPC: 2.00683 cumulative IPC: 2.00231 (Simulation time: 0 hr 2 min 35 sec) 
Heartbeat CPU  0 instructions:   91000000 cycles:   45447921 heartbeat IPC: 2.00083 cumulative IPC: 2.00229 (Simulation time: 0 hr 2 min 37 sec) 
Heartbeat CPU  0 instructions:   92000000 cycles:   45946590 heartbeat IPC: 2.00534 cumulative IPC: 2.00232 (Simulation time: 0 hr 2 min 39 sec) 
Heartbeat CPU  0 instructions:   93000000 cycles:   46445872 heartbeat IPC: 2.00288 cumulative IPC: 2.00233 (Simulation time: 0 hr 2 min 41 sec) 
Heartbeat CPU  0 instructions:   94000000 cycles:   46945184 heartbeat IPC: 2.00276 cumulative IPC: 2.00234 (Simulation time: 0 hr 2 min 42 sec) 
Heartbeat CPU  0 instructions:   95000000 cycles:   47443451 heartbeat IPC: 2.00696 cumulative IPC: 2.00238 (Simulation time: 0 hr 2 min 44 sec) 
Heartbeat CPU  0 instructions:   96000000 cycles:   47943466 heartbeat IPC: 1.99994 cumulative IPC: 2.00236 (Simulation time: 0 hr 2 min 46 sec) 
Heartbeat CPU  0 instructions:   97000000 cycles:   48441573 heartbeat IPC: 2.00760 cumulative IPC: 2.00241 (Simulation time: 0 hr 2 min 48 sec) 
Heartbeat CPU  0 instructions:   98000001 cycles:   48942460 heartbeat IPC: 1.99646 cumulative IPC: 2.00235 (Simulation time: 0 hr 2 min 49 sec) 
Heartbeat CPU  0 instructions:   99000002 cycles:   49440336 heartbeat IPC: 2.00853 cumulative IPC: 2.00241 (Simulation time: 0 hr 2 min 51 sec) 
Heartbeat CPU  0 instructions:  100000000 cycles:   49940891 heartbeat IPC: 1.99778 cumulative IPC: 2.00237 (Simulation time: 0 hr 2 min 53 sec) 

Warmup complete CPU  0 instructions:  100000001 cycles:   49940892 (Simulation time: 0 hr 2 min 53 sec) 

Heartbeat CPU  0 instructions:  101000003 cycles:   51234495 heartbeat IPC: 0.77304 cumulative IPC: 0.77304 (Simulation time: 0 hr 2 min 55 sec) 
Heartbeat CPU  0 instructions:  102000001 cycles:   52520300 heartbeat IPC: 0.77772 cumulative IPC: 0.77537 (Simulation time: 0 hr 2 min 57 sec) 
Heartbeat CPU  0 instructions:  103000002 cycles:   53802315 heartbeat IPC: 0.78002 cumulative IPC: 0.77692 (Simulation time: 0 hr 2 min 59 sec) 
Heartbeat CPU  0 instructions:  104000000 cycles:   55094459 heartbeat IPC: 0.77391 cumulative IPC: 0.77616 (Simulation time: 0 hr 3 min 2 sec) 
Heartbeat CPU  0 instructions:  105000000 cycles:   56394160 heartbeat IPC: 0.76941 cumulative IPC: 0.77480 (Simulation time: 0 hr 3 min 4 sec) 
Heartbeat CPU  0 instructions:  106000003 cycles:   57692815 heartbeat IPC: 0.77003 cumulative IPC: 0.77400 (Simulation time: 0 hr 3 min 6 sec) 
Heartbeat CPU  0 instructions:  107000000 cycles:   58979142 heartbeat IPC: 0.77740 cumulative IPC: 0.77449 (Simulation time: 0 hr 3 min 8 sec) 
Heartbeat CPU  0 instructions:  108000000 cycles:   60284897 heartbeat IPC: 0.76584 cumulative IPC: 0.77339 (Simulation time: 0 hr 3 min 11 sec) 
Heartbeat CPU  0 instructions:  109000000 cycles:   61570159 heartbeat IPC: 0.77805 cumulative IPC: 0.77391 (Simulation time: 0 hr 3 min 13 sec) 
Heartbeat CPU  0 instructions:  110000001 cycles:   62858830 heartbeat IPC: 0.77599 cumulative IPC: 0.77412 (Simulation time: 0 hr 3 min 15 sec) 
Heartbeat CPU  0 instructions:  111000001 cycles:   64152875 heartbeat IPC: 0.77277 cumulative IPC: 0.77399 (Simulation time: 0 hr 3 min 17 sec) 
Heartbeat CPU  0 instructions:  112000000 cycles:   65430605 heartbeat IPC: 0.78264 cumulative IPC: 0.77471 (Simulation time: 0 hr 3 min 19 sec) 
Heartbeat CPU  0 instructions:  113000003 cycles:   66696057 heartbeat IPC: 0.79023 cumulative IPC: 0.77588 (Simulation time: 0 hr 3 min 22 sec) 
Heartbeat CPU  0 instructions:  114000001 cycles:   68000579 heartbeat IPC: 0.76656 cumulative IPC: 0.77521 (Simulation time: 0 hr 3 min 24 sec) 
Heartbeat CPU  0 instructions:  115000003 cycles:   69294036 heartbeat IPC: 0.77312 cumulative IPC: 0.77507 (Simulation time: 0 hr 3 min 26 sec) 
Heartbeat CPU  0 instructions:  116000000 cycles:   70588644 heartbeat IPC: 0.77243 cumulative IPC: 0.77490 (Simulation time: 0 hr 3 min 28 sec) 
Heartbeat CPU  0 instructions:  117000000 cycles:   71874646 heartbeat IPC: 0.77760 cumulative IPC: 0.77506 (Simulation time: 0 hr 3 min 31 sec) 
Heartbeat CPU  0 instructions:  118000000 cycles:   73154648 heartbeat IPC: 0.78125 cumulative IPC: 0.77540 (Simulation time: 0 hr 3 min 33 sec) 
Heartbeat CPU  0 instructions:  119000000 cycles:   74444272 heartbeat IPC: 0.77542 cumulative IPC: 0.77540 (Simulation time: 0 hr 3 min 35 sec) 
Heartbeat CPU  0 instructions:  120000000 cycles:   75719625 heartbeat IPC: 0.78410 cumulative IPC: 0.77583 (Simulation time: 0 hr 3 min 37 sec) 
Heartbeat CPU  0 instructions:  121000000 cycles:   77021159 heartbeat IPC: 0.76832 cumulative IPC: 0.77547 (Simulation time: 0 hr 3 min 39 sec) 
Heartbeat CPU  0 instructions:  122000000 cycles:   78326292 heartbeat IPC: 0.76621 cumulative IPC: 0.77505 (Simulation time: 0 hr 3 min 42 sec) 
Heartbeat CPU  0 instructions:  123000001 cycles:   79644600 heartbeat IPC: 0.75855 cumulative IPC: 0.77431 (Simulation time: 0 hr 3 min 44 sec) 
Heartbeat CPU  0 instructions:  124000000 cycles:   80909871 heartbeat IPC: 0.79034 cumulative IPC: 0.77497 (Simulation time: 0 hr 3 min 46 sec) 
Heartbeat CPU  0 instructions:  125000001 cycles:   82213833 heartbeat IPC: 0.76689 cumulative IPC: 0.77464 (Simulation time: 0 hr 3 min 48 sec) 
Heartbeat CPU  0 instructions:  126000002 cycles:   83507225 heartbeat IPC: 0.77316 cumulative IPC: 0.77459 (Simulation time: 0 hr 3 min 51 sec) 
Heartbeat CPU  0 instructions:  127000000 cycles:   84809132 heartbeat IPC: 0.76810 cumulative IPC: 0.77434 (Simulation time: 0 hr 3 min 53 sec) 
Heartbeat CPU  0 instructions:  128000000 cycles:   86094996 heartbeat IPC: 0.77769 cumulative IPC: 0.77446 (Simulation time: 0 hr 3 min 55 sec) 
Heartbeat CPU  0 instructions:  129000003 cycles:   87382010 heartbeat IPC: 0.77699 cumulative IPC: 0.77455 (Simulation time: 0 hr 3 min 57 sec) 
Heartbeat CPU  0 instructions:  130000000 cycles:   88668032 heartbeat IPC: 0.77759 cumulative IPC: 0.77465 (Simulation time: 0 hr 3 min 59 sec) 
Heartbeat CPU  0 instructions:  131000001 cycles:   89988685 heartbeat IPC: 0.75720 cumulative IPC: 0.77408 (Simulation time: 0 hr 4 min 2 sec) 
Heartbeat CPU  0 instructions:  132000000 cycles:   91632721 heartbeat IPC: 0.60826 cumulative IPC: 0.76754 (Simulation time: 0 hr 4 min 4 sec) 
Heartbeat CPU  0 instructions:  133000001 cycles:   93604035 heartbeat IPC: 0.50728 cumulative IPC: 0.75579 (Simulation time: 0 hr 4 min 6 sec) 
Heartbeat CPU  0 instructions:  134000003 cycles:   94939553 heartbeat IPC: 0.74877 cumulative IPC: 0.75558 (Simulation time: 0 hr 4 min 9 sec) 
Heartbeat CPU  0 instructions:  135000000 cycles:   96357443 heartbeat IPC: 0.70527 cumulative IPC: 0.75404 (Simulation time: 0 hr 4 min 11 sec) 
Heartbeat CPU  0 instructions:  136000000 cycles:   97933702 heartbeat IPC: 0.63441 cumulative IPC: 0.75011 (Simulation time: 0 hr 4 min 14 sec) 
Heartbeat CPU  0 instructions:  137000001 cycles:   99505571 heartbeat IPC: 0.63619 cumulative IPC: 0.74650 (Simulation time: 0 hr 4 min 16 sec) 
Heartbeat CPU  0 instructions:  138000003 cycles:  101079344 heartbeat IPC: 0.63542 cumulative IPC: 0.74308 (Simulation time: 0 hr 4 min 18 sec) 
Heartbeat CPU  0 instructions:  139000000 cycles:  102649463 heartbeat IPC: 0.63689 cumulative IPC: 0.73992 (Simulation time: 0 hr 4 min 21 sec) 
Heartbeat CPU  0 instructions:  140000000 cycles:  104225092 heartbeat IPC: 0.63467 cumulative IPC: 0.73686 (Simulation time: 0 hr 4 min 23 sec) 
Heartbeat CPU  0 instructions:  141000001 cycles:  105794190 heartbeat IPC: 0.63731 cumulative IPC: 0.73407 (Simulation time: 0 hr 4 min 25 sec) 
Heartbeat CPU  0 instructions:  142000003 cycles:  107364623 heartbeat IPC: 0.63677 cumulative IPC: 0.73140 (Simulation time: 0 hr 4 min 28 sec) 
Heartbeat CPU  0 instructions:  143000000 cycles:  108936562 heartbeat IPC: 0.63616 cumulative IPC: 0.72887 (Simulation time: 0 hr 4 min 30 sec) 
Heartbeat CPU  0 instructions:  144000000 cycles:  110316195 heartbeat IPC: 0.72483 cumulative IPC: 0.72877 (Simulation time: 0 hr 4 min 32 sec) 
Heartbeat CPU  0 instructions:  145000001 cycles:  111549837 heartbeat IPC: 0.81061 cumulative IPC: 0.73041 (Simulation time: 0 hr 4 min 35 sec) 
Heartbeat CPU  0 instructions:  146000002 cycles:  112801488 heartbeat IPC: 0.79895 cumulative IPC: 0.73178 (Simulation time: 0 hr 4 min 37 sec) 
Heartbeat CPU  0 instructions:  147000002 cycles:  114057781 heartbeat IPC: 0.79599 cumulative IPC: 0.73304 (Simulation time: 0 hr 4 min 39 sec) 
Heartbeat CPU  0 instructions:  148000000 cycles:  115594410 heartbeat IPC: 0.65077 cumulative IPC: 0.73111 (Simulation time: 0 hr 4 min 41 sec) 
Heartbeat CPU  0 instructions:  149000001 cycles:  117167618 heartbeat IPC: 0.63564 cumulative IPC: 0.72888 (Simulation time: 0 hr 4 min 44 sec) 
Heartbeat CPU  0 instructions:  150000002 cycles:  118737037 heartbeat IPC: 0.63718 cumulative IPC: 0.72678 (Simulation time: 0 hr 4 min 46 sec) 
Heartbeat CPU  0 instructions:  151000002 cycles:  120311704 heartbeat IPC: 0.63505 cumulative IPC: 0.72473 (Simulation time: 0 hr 4 min 48 sec) 
Heartbeat CPU  0 instructions:  152000000 cycles:  121883283 heartbeat IPC: 0.63630 cumulative IPC: 0.72280 (Simulation time: 0 hr 4 min 51 sec) 
Heartbeat CPU  0 instructions:  153000000 cycles:  123451506 heartbeat IPC: 0.63766 cumulative IPC: 0.72098 (Simulation time: 0 hr 4 min 53 sec) 
Heartbeat CPU  0 instructions:  154000002 cycles:  125024519 heartbeat IPC: 0.63572 cumulative IPC: 0.71920 (Simulation time: 0 hr 4 min 55 sec) 
Heartbeat CPU  0 instructions:  155000001 cycles:  126593343 heartbeat IPC: 0.63742 cumulative IPC: 0.71752 (Simulation time: 0 hr 4 min 58 sec) 
Heartbeat CPU  0 instructions:  156000000 cycles:  128111558 heartbeat IPC: 0.65867 cumulative IPC: 0.71638 (Simulation time: 0 hr 5 min 0 sec) 
Heartbeat CPU  0 instructions:  157000002 cycles:  129371321 heartbeat IPC: 0.79380 cumulative IPC: 0.71761 (Simulation time: 0 hr 5 min 2 sec) 
Heartbeat CPU  0 instructions:  158000000 cycles:  130678138 heartbeat IPC: 0.76522 cumulative IPC: 0.71838 (Simulation time: 0 hr 5 min 5 sec) 
Heartbeat CPU  0 instructions:  159000003 cycles:  131973475 heartbeat IPC: 0.77200 cumulative IPC: 0.71923 (Simulation time: 0 hr 5 min 7 sec) 
Heartbeat CPU  0 instructions:  160000000 cycles:  133406437 heartbeat IPC: 0.69785 cumulative IPC: 0.71886 (Simulation time: 0 hr 5 min 9 sec) 
Heartbeat CPU  0 instructions:  161000000 cycles:  134978282 heartbeat IPC: 0.63620 cumulative IPC: 0.71733 (Simulation time: 0 hr 5 min 12 sec) 
Heartbeat CPU  0 instructions:  162000001 cycles:  136549093 heartbeat IPC: 0.63661 cumulative IPC: 0.71587 (Simulation time: 0 hr 5 min 14 sec) 
Heartbeat CPU  0 instructions:  163000001 cycles:  138122976 heartbeat IPC: 0.63537 cumulative IPC: 0.71443 (Simulation time: 0 hr 5 min 16 sec) 
Heartbeat CPU  0 instructions:  164000000 cycles:  139694093 heartbeat IPC: 0.63649 cumulative IPC: 0.71307 (Simulation time: 0 hr 5 min 19 sec) 
Heartbeat CPU  0 instructions:  165000000 cycles:  141269160 heartbeat IPC: 0.63489 cumulative IPC: 0.71172 (Simulation time: 0 hr 5 min 21 sec) 
Heartbeat CPU  0 instructions:  166000001 cycles:  142840264 heartbeat IPC: 0.63650 cumulative IPC: 0.71045 (Simulation time: 0 hr 5 min 23 sec) 
Heartbeat CPU  0 instructions:  167000003 cycles:  144415417 heartbeat IPC: 0.63486 cumulative IPC: 0.70919 (Simulation time: 0 hr 5 min 26 sec) 
Heartbeat CPU  0 instructions:  168000000 cycles:  145987316 heartbeat IPC: 0.63617 cumulative IPC: 0.70799 (Simulation time: 0 hr 5 min 28 sec) 
Heartbeat CPU  0 instructions:  169000001 cycles:  147344446 heartbeat IPC: 0.73685 cumulative IPC: 0.70839 (Simulation time: 0 hr 5 min 30 sec) 
Heartbeat CPU  0 instructions:  170000001 cycles:  148641792 heartbeat IPC: 0.77080 cumulative IPC: 0.70921 (Simulation time: 0 hr 5 min 33 sec) 
Heartbeat CPU  0 instructions:  171000001 cycles:  149962388 heartbeat IPC: 0.75723 cumulative IPC: 0.70985 (Simulation time: 0 hr 5 min 35 sec) 
Heartbeat CPU  0 instructions:  172000000 cycles:  151299239 heartbeat IPC: 0.74803 cumulative IPC: 0.71035 (Simulation time: 0 hr 5 min 37 sec) 
Heartbeat CPU  0 instructions:  173000000 cycles:  152871214 heartbeat IPC: 0.63614 cumulative IPC: 0.70922 (Simulation time: 0 hr 5 min 39 sec) 
Heartbeat CPU  0 instructions:  174000003 cycles:  154446696 heartbeat IPC: 0.63473 cumulative IPC: 0.70809 (Simulation time: 0 hr 5 min 42 sec) 
Heartbeat CPU  0 instructions:  175000002 cycles:  156018557 heartbeat IPC: 0.63619 cumulative IPC: 0.70703 (Simulation time: 0 hr 5 min 44 sec) 
Heartbeat CPU  0 instructions:  176000000 cycles:  157594605 heartbeat IPC: 0.63450 cumulative IPC: 0.70597 (Simulation time: 0 hr 5 min 46 sec) 
Heartbeat CPU  0 instructions:  177000001 cycles:  159166543 heartbeat IPC: 0.63616 cumulative IPC: 0.70496 (Simulation time: 0 hr 5 min 49 sec) 
Heartbeat CPU  0 instructions:  178000003 cycles:  160739394 heartbeat IPC: 0.63579 cumulative IPC: 0.70398 (Simulation time: 0 hr 5 min 51 sec) 
Heartbeat CPU  0 instructions:  179000002 cycles:  162312013 heartbeat IPC: 0.63588 cumulative IPC: 0.70303 (Simulation time: 0 hr 5 min 54 sec) 
Heartbeat CPU  0 instructions:  180000000 cycles:  163887204 heartbeat IPC: 0.63484 cumulative IPC: 0.70209 (Simulation time: 0 hr 5 min 56 sec) 
Heartbeat CPU  0 instructions:  181000000 cycles:  165349931 heartbeat IPC: 0.68365 cumulative IPC: 0.70185 (Simulation time: 0 hr 5 min 58 sec) 
Heartbeat CPU  0 instructions:  182000002 cycles:  166627483 heartbeat IPC: 0.78275 cumulative IPC: 0.70274 (Simulation time: 0 hr 6 min 0 sec) 
Heartbeat CPU  0 instructions:  183000002 cycles:  167926291 heartbeat IPC: 0.76994 cumulative IPC: 0.70348 (Simulation time: 0 hr 6 min 3 sec) 
Heartbeat CPU  0 instructions:  184000000 cycles:  169216669 heartbeat IPC: 0.77497 cumulative IPC: 0.70425 (Simulation time: 0 hr 6 min 5 sec) 
Heartbeat CPU  0 instructions:  185000003 cycles:  170687097 heartbeat IPC: 0.68008 cumulative IPC: 0.70396 (Simulation time: 0 hr 6 min 7 sec) 
Heartbeat CPU  0 instructions:  186000000 cycles:  172258454 heartbeat IPC: 0.63639 cumulative IPC: 0.70309 (Simulation time: 0 hr 6 min 10 sec) 
Heartbeat CPU  0 instructions:  187000000 cycles:  173833154 heartbeat IPC: 0.63504 cumulative IPC: 0.70222 (Simulation time: 0 hr 6 min 12 sec) 
Heartbeat CPU  0 instructions:  188000000 cycles:  175404895 heartbeat IPC: 0.63624 cumulative IPC: 0.70140 (Simulation time: 0 hr 6 min 14 sec) 
Heartbeat CPU  0 instructions:  189000003 cycles:  176980692 heartbeat IPC: 0.63460 cumulative IPC: 0.70057 (Simulation time: 0 hr 6 min 17 sec) 
Heartbeat CPU  0 instructions:  190000000 cycles:  178551653 heartbeat IPC: 0.63655 cumulative IPC: 0.69979 (Simulation time: 0 hr 6 min 19 sec) 
Heartbeat CPU  0 instructions:  191000000 cycles:  180127660 heartbeat IPC: 0.63451 cumulative IPC: 0.69900 (Simulation time: 0 hr 6 min 21 sec) 
Heartbeat CPU  0 instructions:  192000000 cycles:  181699500 heartbeat IPC: 0.63620 cumulative IPC: 0.69825 (Simulation time: 0 hr 6 min 24 sec) 
Heartbeat CPU  0 instructions:  193000000 cycles:  183269884 heartbeat IPC: 0.63679 cumulative IPC: 0.69752 (Simulation time: 0 hr 6 min 26 sec) 
Heartbeat CPU  0 instructions:  194000000 cycles:  184552705 heartbeat IPC: 0.77953 cumulative IPC: 0.69830 (Simulation time: 0 hr 6 min 28 sec) 
Heartbeat CPU  0 instructions:  195000003 cycles:  186680372 heartbeat IPC: 0.47000 cumulative IPC: 0.69475 (Simulation time: 0 hr 6 min 31 sec) 
Heartbeat CPU  0 instructions:  196000000 cycles:  189363760 heartbeat IPC: 0.37266 cumulative IPC: 0.68855 (Simulation time: 0 hr 6 min 34 sec) 
Heartbeat CPU  0 instructions:  197000000 cycles:  192014439 heartbeat IPC: 0.37726 cumulative IPC: 0.68274 (Simulation time: 0 hr 6 min 36 sec) 
Heartbeat CPU  0 instructions:  198000000 cycles:  194570628 heartbeat IPC: 0.39121 cumulative IPC: 0.67759 (Simulation time: 0 hr 6 min 39 sec) 
Heartbeat CPU  0 instructions:  199000001 cycles:  197140449 heartbeat IPC: 0.38913 cumulative IPC: 0.67256 (Simulation time: 0 hr 6 min 41 sec) 
Heartbeat CPU  0 instructions:  200000000 cycles:  199714540 heartbeat IPC: 0.38849 cumulative IPC: 0.66767 (Simulation time: 0 hr 6 min 44 sec) 
Heartbeat CPU  0 instructions:  201000002 cycles:  202275820 heartbeat IPC: 0.39043 cumulative IPC: 0.66301 (Simulation time: 0 hr 6 min 47 sec) 
Heartbeat CPU  0 instructions:  202000002 cycles:  204830491 heartbeat IPC: 0.39144 cumulative IPC: 0.65853 (Simulation time: 0 hr 6 min 49 sec) 
Heartbeat CPU  0 instructions:  203000003 cycles:  207384567 heartbeat IPC: 0.39153 cumulative IPC: 0.65420 (Simulation time: 0 hr 6 min 52 sec) 
Heartbeat CPU  0 instructions:  204000000 cycles:  209940769 heartbeat IPC: 0.39120 cumulative IPC: 0.65000 (Simulation time: 0 hr 6 min 54 sec) 
Heartbeat CPU  0 instructions:  205000001 cycles:  212595550 heartbeat IPC: 0.37668 cumulative IPC: 0.64554 (Simulation time: 0 hr 6 min 57 sec) 
Heartbeat CPU  0 instructions:  206000003 cycles:  215135917 heartbeat IPC: 0.39364 cumulative IPC: 0.64167 (Simulation time: 0 hr 7 min 0 sec) 
Heartbeat CPU  0 instructions:  207000001 cycles:  217656946 heartbeat IPC: 0.39666 cumulative IPC: 0.63798 (Simulation time: 0 hr 7 min 2 sec) 
Heartbeat CPU  0 instructions:  208000000 cycles:  220170667 heartbeat IPC: 0.39782 cumulative IPC: 0.63444 (Simulation time: 0 hr 7 min 5 sec) 
Heartbeat CPU  0 instructions:  209000000 cycles:  222666783 heartbeat IPC: 0.40062 cumulative IPC: 0.63106 (Simulation time: 0 hr 7 min 8 sec) 
Heartbeat CPU  0 instructions:  210000003 cycles:  225162481 heartbeat IPC: 0.40069 cumulative IPC: 0.62778 (Simulation time: 0 hr 7 min 10 sec) 
Heartbeat CPU  0 instructions:  211000002 cycles:  227646128 heartbeat IPC: 0.40263 cumulative IPC: 0.62463 (Simulation time: 0 hr 7 min 13 sec) 
Heartbeat CPU  0 instructions:  212000000 cycles:  230127230 heartbeat IPC: 0.40305 cumulative IPC: 0.62158 (Simulation time: 0 hr 7 min 15 sec) 
Heartbeat CPU  0 instructions:  213000001 cycles:  232719153 heartbeat IPC: 0.38581 cumulative IPC: 0.61824 (Simulation time: 0 hr 7 min 18 sec) 
Heartbeat CPU  0 instructions:  214000001 cycles:  235355783 heartbeat IPC: 0.37927 cumulative IPC: 0.61484 (Simulation time: 0 hr 7 min 21 sec) 
Heartbeat CPU  0 instructions:  215000002 cycles:  237902435 heartbeat IPC: 0.39267 cumulative IPC: 0.61183 (Simulation time: 0 hr 7 min 23 sec) 
Heartbeat CPU  0 instructions:  216000000 cycles:  240456010 heartbeat IPC: 0.39161 cumulative IPC: 0.60888 (Simulation time: 0 hr 7 min 26 sec) 
Heartbeat CPU  0 instructions:  217000003 cycles:  243009798 heartbeat IPC: 0.39158 cumulative IPC: 0.60600 (Simulation time: 0 hr 7 min 28 sec) 
Heartbeat CPU  0 instructions:  218000003 cycles:  245557148 heartbeat IPC: 0.39256 cumulative IPC: 0.60322 (Simulation time: 0 hr 7 min 31 sec) 
Heartbeat CPU  0 instructions:  219000003 cycles:  248102386 heartbeat IPC: 0.39289 cumulative IPC: 0.60052 (Simulation time: 0 hr 7 min 34 sec) 
Heartbeat CPU  0 instructions:  220000000 cycles:  250647297 heartbeat IPC: 0.39294 cumulative IPC: 0.59789 (Simulation time: 0 hr 7 min 36 sec) 
Heartbeat CPU  0 instructions:  221000003 cycles:  253066453 heartbeat IPC: 0.41337 cumulative IPC: 0.59569 (Simulation time: 0 hr 7 min 39 sec) 
Heartbeat CPU  0 instructions:  222000002 cycles:  255303268 heartbeat IPC: 0.44706 cumulative IPC: 0.59407 (Simulation time: 0 hr 7 min 42 sec) 
Heartbeat CPU  0 instructions:  223000002 cycles:  257569216 heartbeat IPC: 0.44132 cumulative IPC: 0.59240 (Simulation time: 0 hr 7 min 45 sec) 
Heartbeat CPU  0 instructions:  224000000 cycles:  259732310 heartbeat IPC: 0.46230 cumulative IPC: 0.59106 (Simulation time: 0 hr 7 min 48 sec) 
Heartbeat CPU  0 instructions:  225000000 cycles:  261689448 heartbeat IPC: 0.51095 cumulative IPC: 0.59032 (Simulation time: 0 hr 7 min 51 sec) 
Heartbeat CPU  0 instructions:  226000003 cycles:  263639002 heartbeat IPC: 0.51294 cumulative IPC: 0.58962 (Simulation time: 0 hr 7 min 53 sec) 
Heartbeat CPU  0 instructions:  227000001 cycles:  265571603 heartbeat IPC: 0.51744 cumulative IPC: 0.58897 (Simulation time: 0 hr 7 min 56 sec) 
Heartbeat CPU  0 instructions:  228000000 cycles:  267501878 heartbeat IPC: 0.51806 cumulative IPC: 0.58834 (Simulation time: 0 hr 7 min 59 sec) 
Heartbeat CPU  0 instructions:  229000000 cycles:  269345114 heartbeat IPC: 0.54252 cumulative IPC: 0.58796 (Simulation time: 0 hr 8 min 1 sec) 
Heartbeat CPU  0 instructions:  230000000 cycles:  271203292 heartbeat IPC: 0.53816 cumulative IPC: 0.58754 (Simulation time: 0 hr 8 min 4 sec) 
Heartbeat CPU  0 instructions:  231000000 cycles:  273125896 heartbeat IPC: 0.52013 cumulative IPC: 0.58696 (Simulation time: 0 hr 8 min 7 sec) 
Heartbeat CPU  0 instructions:  232000000 cycles:  275029090 heartbeat IPC: 0.52543 cumulative IPC: 0.58644 (Simulation time: 0 hr 8 min 10 sec) 
Heartbeat CPU  0 instructions:  233000000 cycles:  276928835 heartbeat IPC: 0.52639 cumulative IPC: 0.58593 (Simulation time: 0 hr 8 min 12 sec) 
Heartbeat CPU  0 instructions:  234000000 cycles:  278855879 heartbeat IPC: 0.51893 cumulative IPC: 0.58537 (Simulation time: 0 hr 8 min 15 sec) 
Heartbeat CPU  0 instructions:  235000003 cycles:  280746955 heartbeat IPC: 0.52880 cumulative IPC: 0.58491 (Simulation time: 0 hr 8 min 18 sec) 
Heartbeat CPU  0 instructions:  236000000 cycles:  282667216 heartbeat IPC: 0.52076 cumulative IPC: 0.58438 (Simulation time: 0 hr 8 min 20 sec) 
Heartbeat CPU  0 instructions:  237000000 cycles:  284580998 heartbeat IPC: 0.52253 cumulative IPC: 0.58387 (Simulation time: 0 hr 8 min 23 sec) 
Heartbeat CPU  0 instructions:  238000002 cycles:  286487760 heartbeat IPC: 0.52445 cumulative IPC: 0.58339 (Simulation time: 0 hr 8 min 26 sec) 
Heartbeat CPU  0 instructions:  239000000 cycles:  288412281 heartbeat IPC: 0.51961 cumulative IPC: 0.58288 (Simulation time: 0 hr 8 min 28 sec) 
Heartbeat CPU  0 instructions:  240000000 cycles:  290329960 heartbeat IPC: 0.52146 cumulative IPC: 0.58239 (Simulation time: 0 hr 8 min 31 sec) 
Heartbeat CPU  0 instructions:  241000002 cycles:  292255687 heartbeat IPC: 0.51929 cumulative IPC: 0.58189 (Simulation time: 0 hr 8 min 34 sec) 
Heartbeat CPU  0 instructions:  242000002 cycles:  294184904 heartbeat IPC: 0.51834 cumulative IPC: 0.58139 (Simulation time: 0 hr 8 min 36 sec) 
Heartbeat CPU  0 instructions:  243000001 cycles:  296119908 heartbeat IPC: 0.51679 cumulative IPC: 0.58088 (Simulation time: 0 hr 8 min 39 sec) 
Heartbeat CPU  0 instructions:  244000000 cycles:  298093508 heartbeat IPC: 0.50669 cumulative IPC: 0.58029 (Simulation time: 0 hr 8 min 42 sec) 
Heartbeat CPU  0 instructions:  245000002 cycles:  299997868 heartbeat IPC: 0.52511 cumulative IPC: 0.57987 (Simulation time: 0 hr 8 min 45 sec) 
Heartbeat CPU  0 instructions:  246000003 cycles:  301918676 heartbeat IPC: 0.52061 cumulative IPC: 0.57942 (Simulation time: 0 hr 8 min 47 sec) 
Heartbeat CPU  0 instructions:  247000002 cycles:  303883439 heartbeat IPC: 0.50897 cumulative IPC: 0.57887 (Simulation time: 0 hr 8 min 50 sec) 
Heartbeat CPU  0 instructions:  248000000 cycles:  305855658 heartbeat IPC: 0.50704 cumulative IPC: 0.57832 (Simulation time: 0 hr 8 min 53 sec) 
Heartbeat CPU  0 instructions:  249000000 cycles:  307818741 heartbeat IPC: 0.50940 cumulative IPC: 0.57779 (Simulation time: 0 hr 8 min 55 sec) 
Heartbeat CPU  0 instructions:  250000000 cycles:  309745704 heartbeat IPC: 0.51895 cumulative IPC: 0.57736 (Simulation time: 0 hr 8 min 58 sec) 
Heartbeat CPU  0 instructions:  251000002 cycles:  311715141 heartbeat IPC: 0.50776 cumulative IPC: 0.57683 (Simulation time: 0 hr 9 min 1 sec) 
Heartbeat CPU  0 instructions:  252000000 cycles:  313682949 heartbeat IPC: 0.50818 cumulative IPC: 0.57632 (Simulation time: 0 hr 9 min 4 sec) 
Heartbeat CPU  0 instructions:  253000001 cycles:  315649548 heartbeat IPC: 0.50849 cumulative IPC: 0.57582 (Simulation time: 0 hr 9 min 6 sec) 
Heartbeat CPU  0 instructions:  254000002 cycles:  317572528 heartbeat IPC: 0.52003 cumulative IPC: 0.57542 (Simulation time: 0 hr 9 min 9 sec) 
Heartbeat CPU  0 instructions:  255000001 cycles:  319561953 heartbeat IPC: 0.50266 cumulative IPC: 0.57488 (Simulation time: 0 hr 9 min 12 sec) 
Heartbeat CPU  0 instructions:  256000000 cycles:  321541247 heartbeat IPC: 0.50523 cumulative IPC: 0.57437 (Simulation time: 0 hr 9 min 15 sec) 
Heartbeat CPU  0 instructions:  257000001 cycles:  323523970 heartbeat IPC: 0.50436 cumulative IPC: 0.57387 (Simulation time: 0 hr 9 min 17 sec) 
Heartbeat CPU  0 instructions:  258000001 cycles:  325537437 heartbeat IPC: 0.49666 cumulative IPC: 0.57330 (Simulation time: 0 hr 9 min 20 sec) 
Heartbeat CPU  0 instructions:  259000000 cycles:  327354195 heartbeat IPC: 0.55043 cumulative IPC: 0.57315 (Simulation time: 0 hr 9 min 23 sec) 
Heartbeat CPU  0 instructions:  260000000 cycles:  329059139 heartbeat IPC: 0.58653 cumulative IPC: 0.57323 (Simulation time: 0 hr 9 min 25 sec) 
Heartbeat CPU  0 instructions:  261000000 cycles:  330761461 heartbeat IPC: 0.58743 cumulative IPC: 0.57332 (Simulation time: 0 hr 9 min 28 sec) 
Heartbeat CPU  0 instructions:  262000000 cycles:  332446162 heartbeat IPC: 0.59358 cumulative IPC: 0.57344 (Simulation time: 0 hr 9 min 30 sec) 
Heartbeat CPU  0 instructions:  263000001 cycles:  334074474 heartbeat IPC: 0.61413 cumulative IPC: 0.57367 (Simulation time: 0 hr 9 min 33 sec) 
Heartbeat CPU  0 instructions:  264000000 cycles:  335645427 heartbeat IPC: 0.63656 cumulative IPC: 0.57402 (Simulation time: 0 hr 9 min 35 sec) 
Heartbeat CPU  0 instructions:  265000001 cycles:  337199547 heartbeat IPC: 0.64345 cumulative IPC: 0.57440 (Simulation time: 0 hr 9 min 38 sec) 
Heartbeat CPU  0 instructions:  266000001 cycles:  338759334 heartbeat IPC: 0.64111 cumulative IPC: 0.57476 (Simulation time: 0 hr 9 min 40 sec) 
Heartbeat CPU  0 instructions:  267000002 cycles:  340306137 heartbeat IPC: 0.64650 cumulative IPC: 0.57514 (Simulation time: 0 hr 9 min 42 sec) 
Heartbeat CPU  0 instructions:  268000000 cycles:  341707517 heartbeat IPC: 0.71358 cumulative IPC: 0.57580 (Simulation time: 0 hr 9 min 44 sec) 
Heartbeat CPU  0 instructions:  269000001 cycles:  343262806 heartbeat IPC: 0.64297 cumulative IPC: 0.57616 (Simulation time: 0 hr 9 min 47 sec) 
Heartbeat CPU  0 instructions:  270000000 cycles:  344730456 heartbeat IPC: 0.68136 cumulative IPC: 0.57668 (Simulation time: 0 hr 9 min 49 sec) 
Heartbeat CPU  0 instructions:  271000002 cycles:  346171674 heartbeat IPC: 0.69386 cumulative IPC: 0.57725 (Simulation time: 0 hr 9 min 51 sec) 
Heartbeat CPU  0 instructions:  272000000 cycles:  347509129 heartbeat IPC: 0.74769 cumulative IPC: 0.57802 (Simulation time: 0 hr 9 min 53 sec) 
Heartbeat CPU  0 instructions:  273000003 cycles:  348710560 heartbeat IPC: 0.83234 cumulative IPC: 0.57904 (Simulation time: 0 hr 9 min 56 sec) 
Heartbeat CPU  0 instructions:  274000002 cycles:  349961181 heartbeat IPC: 0.79960 cumulative IPC: 0.57996 (Simulation time: 0 hr 9 min 58 sec) 
Heartbeat CPU  0 instructions:  275000000 cycles:  351296550 heartbeat IPC: 0.74886 cumulative IPC: 0.58071 (Simulation time: 0 hr 10 min 0 sec) 
Heartbeat CPU  0 instructions:  276000000 cycles:  352641061 heartbeat IPC: 0.74376 cumulative IPC: 0.58143 (Simulation time: 0 hr 10 min 2 sec) 
Heartbeat CPU  0 instructions:  277000001 cycles:  353968320 heartbeat IPC: 0.75343 cumulative IPC: 0.58218 (Simulation time: 0 hr 10 min 5 sec) 
Heartbeat CPU  0 instructions:  278000001 cycles:  355265539 heartbeat IPC: 0.77088 cumulative IPC: 0.58299 (Simulation time: 0 hr 10 min 7 sec) 
Heartbeat CPU  0 instructions:  279000003 cycles:  356731332 heartbeat IPC: 0.68223 cumulative IPC: 0.58346 (Simulation time: 0 hr 10 min 9 sec) 
Heartbeat CPU  0 instructions:  280000000 cycles:  358265430 heartbeat IPC: 0.65185 cumulative IPC: 0.58380 (Simulation time: 0 hr 10 min 11 sec) 
Heartbeat CPU  0 instructions:  281000000 cycles:  359581661 heartbeat IPC: 0.75975 cumulative IPC: 0.58455 (Simulation time: 0 hr 10 min 13 sec) 
Heartbeat CPU  0 instructions:  282000002 cycles:  360853424 heartbeat IPC: 0.78631 cumulative IPC: 0.58537 (Simulation time: 0 hr 10 min 16 sec) 
Heartbeat CPU  0 instructions:  283000003 cycles:  362092058 heartbeat IPC: 0.80734 cumulative IPC: 0.58625 (Simulation time: 0 hr 10 min 18 sec) 
Heartbeat CPU  0 instructions:  284000000 cycles:  363360868 heartbeat IPC: 0.78814 cumulative IPC: 0.58707 (Simulation time: 0 hr 10 min 20 sec) 
Heartbeat CPU  0 instructions:  285000001 cycles:  364713446 heartbeat IPC: 0.73933 cumulative IPC: 0.58773 (Simulation time: 0 hr 10 min 22 sec) 
Heartbeat CPU  0 instructions:  286000001 cycles:  366119347 heartbeat IPC: 0.71129 cumulative IPC: 0.58828 (Simulation time: 0 hr 10 min 25 sec) 
Heartbeat CPU  0 instructions:  287000003 cycles:  367514842 heartbeat IPC: 0.71659 cumulative IPC: 0.58884 (Simulation time: 0 hr 10 min 27 sec) 
Heartbeat CPU  0 instructions:  288000000 cycles:  368911639 heartbeat IPC: 0.71592 cumulative IPC: 0.58940 (Simulation time: 0 hr 10 min 29 sec) 
Heartbeat CPU  0 instructions:  289000000 cycles:  370424558 heartbeat IPC: 0.66097 cumulative IPC: 0.58973 (Simulation time: 0 hr 10 min 31 sec) 
Heartbeat CPU  0 instructions:  290000003 cycles:  372119397 heartbeat IPC: 0.59003 cumulative IPC: 0.58974 (Simulation time: 0 hr 10 min 34 sec) 
Heartbeat CPU  0 instructions:  291000002 cycles:  373568833 heartbeat IPC: 0.68992 cumulative IPC: 0.59018 (Simulation time: 0 hr 10 min 36 sec) 
Heartbeat CPU  0 instructions:  292000000 cycles:  374961063 heartbeat IPC: 0.71827 cumulative IPC: 0.59073 (Simulation time: 0 hr 10 min 38 sec) 
Heartbeat CPU  0 instructions:  293000003 cycles:  376299933 heartbeat IPC: 0.74690 cumulative IPC: 0.59137 (Simulation time: 0 hr 10 min 40 sec) 
Heartbeat CPU  0 instructions:  294000000 cycles:  377597809 heartbeat IPC: 0.77049 cumulative IPC: 0.59208 (Simulation time: 0 hr 10 min 43 sec) 
Heartbeat CPU  0 instructions:  295000000 cycles:  378966072 heartbeat IPC: 0.73085 cumulative IPC: 0.59266 (Simulation time: 0 hr 10 min 45 sec) 
Heartbeat CPU  0 instructions:  296000000 cycles:  380377012 heartbeat IPC: 0.70875 cumulative IPC: 0.59316 (Simulation time: 0 hr 10 min 47 sec) 
Heartbeat CPU  0 instructions:  297000000 cycles:  381782942 heartbeat IPC: 0.71127 cumulative IPC: 0.59366 (Simulation time: 0 hr 10 min 50 sec) 
Heartbeat CPU  0 instructions:  298000000 cycles:  383202689 heartbeat IPC: 0.70435 cumulative IPC: 0.59413 (Simulation time: 0 hr 10 min 52 sec) 
Heartbeat CPU  0 instructions:  299000002 cycles:  384603950 heartbeat IPC: 0.71364 cumulative IPC: 0.59463 (Simulation time: 0 hr 10 min 54 sec) 
Heartbeat CPU  0 instructions:  300000000 cycles:  386334059 heartbeat IPC: 0.57800 cumulative IPC: 0.59454 (Simulation time: 0 hr 10 min 56 sec) 
Heartbeat CPU  0 instructions:  301000003 cycles:  387896745 heartbeat IPC: 0.63993 cumulative IPC: 0.59475 (Simulation time: 0 hr 10 min 59 sec) 
Heartbeat CPU  0 instructions:  302000002 cycles:  389296402 heartbeat IPC: 0.71446 cumulative IPC: 0.59525 (Simulation time: 0 hr 11 min 1 sec) 
Heartbeat CPU  0 instructions:  303000000 cycles:  390658973 heartbeat IPC: 0.73391 cumulative IPC: 0.59580 (Simulation time: 0 hr 11 min 3 sec) 
Heartbeat CPU  0 instructions:  304000000 cycles:  392004910 heartbeat IPC: 0.74298 cumulative IPC: 0.59638 (Simulation time: 0 hr 11 min 5 sec) 
Heartbeat CPU  0 instructions:  305000000 cycles:  393372739 heartbeat IPC: 0.73109 cumulative IPC: 0.59692 (Simulation time: 0 hr 11 min 8 sec) 
Heartbeat CPU  0 instructions:  306000000 cycles:  394737766 heartbeat IPC: 0.73259 cumulative IPC: 0.59745 (Simulation time: 0 hr 11 min 10 sec) 
Heartbeat CPU  0 instructions:  307000003 cycles:  396102142 heartbeat IPC: 0.73294 cumulative IPC: 0.59799 (Simulation time: 0 hr 11 min 12 sec) 
Heartbeat CPU  0 instructions:  308000000 cycles:  397478083 heartbeat IPC: 0.72677 cumulative IPC: 0.59850 (Simulation time: 0 hr 11 min 14 sec) 
Heartbeat CPU  0 instructions:  309000003 cycles:  398833194 heartbeat IPC: 0.73795 cumulative IPC: 0.59904 (Simulation time: 0 hr 11 min 17 sec) 
Heartbeat CPU  0 instructions:  310000001 cycles:  400464095 heartbeat IPC: 0.61316 cumulative IPC: 0.59910 (Simulation time: 0 hr 11 min 19 sec) 
Heartbeat CPU  0 instructions:  311000000 cycles:  402130413 heartbeat IPC: 0.60012 cumulative IPC: 0.59911 (Simulation time: 0 hr 11 min 21 sec) 
Heartbeat CPU  0 instructions:  312000000 cycles:  403556916 heartbeat IPC: 0.70101 cumulative IPC: 0.59952 (Simulation time: 0 hr 11 min 24 sec) 
Heartbeat CPU  0 instructions:  313000000 cycles:  404933869 heartbeat IPC: 0.72624 cumulative IPC: 0.60001 (Simulation time: 0 hr 11 min 26 sec) 
Heartbeat CPU  0 instructions:  314000003 cycles:  406321816 heartbeat IPC: 0.72049 cumulative IPC: 0.60048 (Simulation time: 0 hr 11 min 28 sec) 
Heartbeat CPU  0 instructions:  315000000 cycles:  407706060 heartbeat IPC: 0.72241 cumulative IPC: 0.60095 (Simulation time: 0 hr 11 min 30 sec) 
Heartbeat CPU  0 instructions:  316000000 cycles:  409114981 heartbeat IPC: 0.70976 cumulative IPC: 0.60138 (Simulation time: 0 hr 11 min 33 sec) 
Heartbeat CPU  0 instructions:  317000000 cycles:  410511863 heartbeat IPC: 0.71588 cumulative IPC: 0.60182 (Simulation time: 0 hr 11 min 35 sec) 
Heartbeat CPU  0 instructions:  318000003 cycles:  411913538 heartbeat IPC: 0.71343 cumulative IPC: 0.60226 (Simulation time: 0 hr 11 min 37 sec) 
Heartbeat CPU  0 instructions:  319000000 cycles:  413314542 heartbeat IPC: 0.71377 cumulative IPC: 0.60269 (Simulation time: 0 hr 11 min 39 sec) 
Heartbeat CPU  0 instructions:  320000000 cycles:  414772481 heartbeat IPC: 0.68590 cumulative IPC: 0.60302 (Simulation time: 0 hr 11 min 42 sec) 
Heartbeat CPU  0 instructions:  321000003 cycles:  416464781 heartbeat IPC: 0.59091 cumulative IPC: 0.60296 (Simulation time: 0 hr 11 min 44 sec) 
Heartbeat CPU  0 instructions:  322000002 cycles:  417999459 heartbeat IPC: 0.65160 cumulative IPC: 0.60316 (Simulation time: 0 hr 11 min 46 sec) 
Heartbeat CPU  0 instructions:  323000002 cycles:  419401919 heartbeat IPC: 0.71303 cumulative IPC: 0.60358 (Simulation time: 0 hr 11 min 49 sec) 
Heartbeat CPU  0 instructions:  324000000 cycles:  420803160 heartbeat IPC: 0.71365 cumulative IPC: 0.60400 (Simulation time: 0 hr 11 min 51 sec) 
Heartbeat CPU  0 instructions:  325000000 cycles:  422198246 heartbeat IPC: 0.71680 cumulative IPC: 0.60442 (Simulation time: 0 hr 11 min 53 sec) 
Heartbeat CPU  0 instructions:  326000002 cycles:  423603609 heartbeat IPC: 0.71156 cumulative IPC: 0.60482 (Simulation time: 0 hr 11 min 55 sec) 
Heartbeat CPU  0 instructions:  327000000 cycles:  424987737 heartbeat IPC: 0.72248 cumulative IPC: 0.60526 (Simulation time: 0 hr 11 min 58 sec) 
Heartbeat CPU  0 instructions:  328000000 cycles:  426374758 heartbeat IPC: 0.72097 cumulative IPC: 0.60568 (Simulation time: 0 hr 12 min 0 sec) 
Heartbeat CPU  0 instructions:  329000003 cycles:  427773590 heartbeat IPC: 0.71488 cumulative IPC: 0.60609 (Simulation time: 0 hr 12 min 2 sec) 
Heartbeat CPU  0 instructions:  330000000 cycles:  429139000 heartbeat IPC: 0.73238 cumulative IPC: 0.60654 (Simulation time: 0 hr 12 min 4 sec) 
Heartbeat CPU  0 instructions:  331000002 cycles:  430798766 heartbeat IPC: 0.60250 cumulative IPC: 0.60653 (Simulation time: 0 hr 12 min 7 sec) 
Heartbeat CPU  0 instructions:  332000000 cycles:  432422069 heartbeat IPC: 0.61603 cumulative IPC: 0.60657 (Simulation time: 0 hr 12 min 9 sec) 
Heartbeat CPU  0 instructions:  333000002 cycles:  433865214 heartbeat IPC: 0.69293 cumulative IPC: 0.60689 (Simulation time: 0 hr 12 min 11 sec) 
Heartbeat CPU  0 instructions:  334000001 cycles:  435262327 heartbeat IPC: 0.71576 cumulative IPC: 0.60729 (Simulation time: 0 hr 12 min 14 sec) 
Heartbeat CPU  0 instructions:  335000003 cycles:  436678991 heartbeat IPC: 0.70589 cumulative IPC: 0.60765 (Simulation time: 0 hr 12 min 16 sec) 
Heartbeat CPU  0 instructions:  336000000 cycles:  438080033 heartbeat IPC: 0.71375 cumulative IPC: 0.60803 (Simulation time: 0 hr 12 min 18 sec) 
Heartbeat CPU  0 instructions:  337000001 cycles:  439465235 heartbeat IPC: 0.72192 cumulative IPC: 0.60843 (Simulation time: 0 hr 12 min 20 sec) 
Heartbeat CPU  0 instructions:  338000000 cycles:  440857289 heartbeat IPC: 0.71836 cumulative IPC: 0.60883 (Simulation time: 0 hr 12 min 23 sec) 
Heartbeat CPU  0 instructions:  339000000 cycles:  442282527 heartbeat IPC: 0.70164 cumulative IPC: 0.60916 (Simulation time: 0 hr 12 min 25 sec) 
Heartbeat CPU  0 instructions:  340000000 cycles:  443680190 heartbeat IPC: 0.71548 cumulative IPC: 0.60954 (Simulation time: 0 hr 12 min 27 sec) 
Heartbeat CPU  0 instructions:  341000003 cycles:  445151095 heartbeat IPC: 0.67986 cumulative IPC: 0.60980 (Simulation time: 0 hr 12 min 29 sec) 
Heartbeat CPU  0 instructions:  342000001 cycles:  446864218 heartbeat IPC: 0.58373 cumulative IPC: 0.60969 (Simulation time: 0 hr 12 min 32 sec) 
Heartbeat CPU  0 instructions:  343000002 cycles:  448323191 heartbeat IPC: 0.68541 cumulative IPC: 0.60997 (Simulation time: 0 hr 12 min 34 sec) 
Heartbeat CPU  0 instructions:  344000000 cycles:  449742817 heartbeat IPC: 0.70441 cumulative IPC: 0.61030 (Simulation time: 0 hr 12 min 36 sec) 
Heartbeat CPU  0 instructions:  345000003 cycles:  451138310 heartbeat IPC: 0.71659 cumulative IPC: 0.61067 (Simulation time: 0 hr 12 min 39 sec) 
Heartbeat CPU  0 instructions:  346000000 cycles:  452533461 heartbeat IPC: 0.71677 cumulative IPC: 0.61104 (Simulation time: 0 hr 12 min 41 sec) 
Heartbeat CPU  0 instructions:  347000000 cycles:  453941814 heartbeat IPC: 0.71005 cumulative IPC: 0.61138 (Simulation time: 0 hr 12 min 43 sec) 
Heartbeat CPU  0 instructions:  348000000 cycles:  455322015 heartbeat IPC: 0.72453 cumulative IPC: 0.61177 (Simulation time: 0 hr 12 min 45 sec) 
Heartbeat CPU  0 instructions:  349000001 cycles:  456729838 heartbeat IPC: 0.71032 cumulative IPC: 0.61211 (Simulation time: 0 hr 12 min 48 sec) 
Heartbeat CPU  0 instructions:  350000002 cycles:  458132575 heartbeat IPC: 0.71289 cumulative IPC: 0.61246 (Simulation time: 0 hr 12 min 50 sec) 
Heartbeat CPU  0 instructions:  351000001 cycles:  459484498 heartbeat IPC: 0.73969 cumulative IPC: 0.61288 (Simulation time: 0 hr 12 min 52 sec) 
Heartbeat CPU  0 instructions:  352000000 cycles:  461156047 heartbeat IPC: 0.59825 cumulative IPC: 0.61282 (Simulation time: 0 hr 12 min 54 sec) 
Heartbeat CPU  0 instructions:  353000002 cycles:  462739232 heartbeat IPC: 0.63164 cumulative IPC: 0.61289 (Simulation time: 0 hr 12 min 57 sec) 
Heartbeat CPU  0 instructions:  354000002 cycles:  464141528 heartbeat IPC: 0.71312 cumulative IPC: 0.61323 (Simulation time: 0 hr 12 min 59 sec) 
Heartbeat CPU  0 instructions:  355000003 cycles:  465524020 heartbeat IPC: 0.72333 cumulative IPC: 0.61360 (Simulation time: 0 hr 13 min 1 sec) 
Heartbeat CPU  0 instructions:  356000000 cycles:  466925930 heartbeat IPC: 0.71331 cumulative IPC: 0.61393 (Simulation time: 0 hr 13 min 3 sec) 
Heartbeat CPU  0 instructions:  357000002 cycles:  468322392 heartbeat IPC: 0.71610 cumulative IPC: 0.61427 (Simulation time: 0 hr 13 min 6 sec) 
Heartbeat CPU  0 instructions:  358000003 cycles:  469716562 heartbeat IPC: 0.71727 cumulative IPC: 0.61461 (Simulation time: 0 hr 13 min 8 sec) 
Heartbeat CPU  0 instructions:  359000001 cycles:  471094081 heartbeat IPC: 0.72594 cumulative IPC: 0.61498 (Simulation time: 0 hr 13 min 10 sec) 
Heartbeat CPU  0 instructions:  360000000 cycles:  472491898 heartbeat IPC: 0.71540 cumulative IPC: 0.61531 (Simulation time: 0 hr 13 min 13 sec) 
Heartbeat CPU  0 instructions:  361000003 cycles:  473874670 heartbeat IPC: 0.72319 cumulative IPC: 0.61566 (Simulation time: 0 hr 13 min 15 sec) 
Heartbeat CPU  0 instructions:  362000000 cycles:  475386854 heartbeat IPC: 0.66129 cumulative IPC: 0.61582 (Simulation time: 0 hr 13 min 17 sec) 
Heartbeat CPU  0 instructions:  363000000 cycles:  477053229 heartbeat IPC: 0.60011 cumulative IPC: 0.61576 (Simulation time: 0 hr 13 min 19 sec) 
Heartbeat CPU  0 instructions:  364000000 cycles:  478510106 heartbeat IPC: 0.68640 cumulative IPC: 0.61600 (Simulation time: 0 hr 13 min 22 sec) 
Heartbeat CPU  0 instructions:  365000000 cycles:  479894222 heartbeat IPC: 0.72248 cumulative IPC: 0.61635 (Simulation time: 0 hr 13 min 24 sec) 
Heartbeat CPU  0 instructions:  366000001 cycles:  481302060 heartbeat IPC: 0.71031 cumulative IPC: 0.61665 (Simulation time: 0 hr 13 min 26 sec) 
Heartbeat CPU  0 instructions:  367000002 cycles:  482690220 heartbeat IPC: 0.72038 cumulative IPC: 0.61699 (Simulation time: 0 hr 13 min 28 sec) 
Heartbeat CPU  0 instructions:  368000000 cycles:  484106471 heartbeat IPC: 0.70609 cumulative IPC: 0.61728 (Simulation time: 0 hr 13 min 31 sec) 
Heartbeat CPU  0 instructions:  369000001 cycles:  485504850 heartbeat IPC: 0.71511 cumulative IPC: 0.61759 (Simulation time: 0 hr 13 min 33 sec) 
Heartbeat CPU  0 instructions:  370000002 cycles:  486899979 heartbeat IPC: 0.71678 cumulative IPC: 0.61791 (Simulation time: 0 hr 13 min 35 sec) 
Heartbeat CPU  0 instructions:  371000000 cycles:  488315015 heartbeat IPC: 0.70669 cumulative IPC: 0.61819 (Simulation time: 0 hr 13 min 38 sec) 
Heartbeat CPU  0 instructions:  372000000 cycles:  489698236 heartbeat IPC: 0.72295 cumulative IPC: 0.61852 (Simulation time: 0 hr 13 min 40 sec) 
Heartbeat CPU  0 instructions:  373000003 cycles:  491398475 heartbeat IPC: 0.58815 cumulative IPC: 0.61841 (Simulation time: 0 hr 13 min 42 sec) 
Heartbeat CPU  0 instructions:  374000003 cycles:  492949529 heartbeat IPC: 0.64472 cumulative IPC: 0.61850 (Simulation time: 0 hr 13 min 45 sec) 
Heartbeat CPU  0 instructions:  375000001 cycles:  494375719 heartbeat IPC: 0.70117 cumulative IPC: 0.61876 (Simulation time: 0 hr 13 min 47 sec) 
Heartbeat CPU  0 instructions:  376000000 cycles:  495762973 heartbeat IPC: 0.72085 cumulative IPC: 0.61908 (Simulation time: 0 hr 13 min 49 sec) 
Heartbeat CPU  0 instructions:  377000001 cycles:  497176784 heartbeat IPC: 0.70731 cumulative IPC: 0.61936 (Simulation time: 0 hr 13 min 51 sec) 
Heartbeat CPU  0 instructions:  378000002 cycles:  498585722 heartbeat IPC: 0.70976 cumulative IPC: 0.61964 (Simulation time: 0 hr 13 min 54 sec) 
Heartbeat CPU  0 instructions:  379000001 cycles:  499986891 heartbeat IPC: 0.71369 cumulative IPC: 0.61994 (Simulation time: 0 hr 13 min 56 sec) 
Heartbeat CPU  0 instructions:  380000000 cycles:  501391938 heartbeat IPC: 0.71172 cumulative IPC: 0.62022 (Simulation time: 0 hr 13 min 58 sec) 
Heartbeat CPU  0 instructions:  381000000 cycles:  502775647 heartbeat IPC: 0.72270 cumulative IPC: 0.62054 (Simulation time: 0 hr 14 min 0 sec) 
Heartbeat CPU  0 instructions:  382000003 cycles:  504169575 heartbeat IPC: 0.71740 cumulative IPC: 0.62083 (Simulation time: 0 hr 14 min 3 sec) 
Heartbeat CPU  0 instructions:  383000001 cycles:  505740231 heartbeat IPC: 0.63668 cumulative IPC: 0.62089 (Simulation time: 0 hr 14 min 5 sec) 
Heartbeat CPU  0 instructions:  384000000 cycles:  507401873 heartbeat IPC: 0.60181 cumulative IPC: 0.62082 (Simulation time: 0 hr 14 min 7 sec) 
Heartbeat CPU  0 instructions:  385000000 cycles:  508853938 heartbeat IPC: 0.68867 cumulative IPC: 0.62103 (Simulation time: 0 hr 14 min 10 sec) 
Heartbeat CPU  0 instructions:  386000001 cycles:  510250312 heartbeat IPC: 0.71614 cumulative IPC: 0.62132 (Simulation time: 0 hr 14 min 12 sec) 
Heartbeat CPU  0 instructions:  387000000 cycles:  511671193 heartbeat IPC: 0.70379 cumulative IPC: 0.62157 (Simulation time: 0 hr 14 min 14 sec) 
Heartbeat CPU  0 instructions:  388000000 cycles:  513088859 heartbeat IPC: 0.70538 cumulative IPC: 0.62183 (Simulation time: 0 hr 14 min 16 sec) 
Heartbeat CPU  0 instructions:  389000001 cycles:  514479595 heartbeat IPC: 0.71904 cumulative IPC: 0.62212 (Simulation time: 0 hr 14 min 19 sec) 
Heartbeat CPU  0 instructions:  390000000 cycles:  515883142 heartbeat IPC: 0.71248 cumulative IPC: 0.62239 (Simulation time: 0 hr 14 min 21 sec) 
Heartbeat CPU  0 instructions:  391000002 cycles:  517296334 heartbeat IPC: 0.70762 cumulative IPC: 0.62265 (Simulation time: 0 hr 14 min 23 sec) 
Heartbeat CPU  0 instructions:  392000000 cycles:  518715180 heartbeat IPC: 0.70480 cumulative IPC: 0.62290 (Simulation time: 0 hr 14 min 26 sec) 
Heartbeat CPU  0 instructions:  393000002 cycles:  520148922 heartbeat IPC: 0.69748 cumulative IPC: 0.62313 (Simulation time: 0 hr 14 min 28 sec) 
Heartbeat CPU  0 instructions:  394000000 cycles:  521852367 heartbeat IPC: 0.58704 cumulative IPC: 0.62300 (Simulation time: 0 hr 14 min 30 sec) 
Heartbeat CPU  0 instructions:  395000002 cycles:  523402789 heartbeat IPC: 0.64499 cumulative IPC: 0.62307 (Simulation time: 0 hr 14 min 32 sec) 
Heartbeat CPU  0 instructions:  396000000 cycles:  524819638 heartbeat IPC: 0.70579 cumulative IPC: 0.62332 (Simulation time: 0 hr 14 min 35 sec) 
Heartbeat CPU  0 instructions:  397000003 cycles:  526207730 heartbeat IPC: 0.72042 cumulative IPC: 0.62360 (Simulation time: 0 hr 14 min 37 sec) 
Heartbeat CPU  0 instructions:  398000001 cycles:  527605421 heartbeat IPC: 0.71546 cumulative IPC: 0.62387 (Simulation time: 0 hr 14 min 39 sec) 
Heartbeat CPU  0 instructions:  399000000 cycles:  529012769 heartbeat IPC: 0.71056 cumulative IPC: 0.62412 (Simulation time: 0 hr 14 min 41 sec) 
Heartbeat CPU  0 instructions:  400000000 cycles:  530439284 heartbeat IPC: 0.70101 cumulative IPC: 0.62435 (Simulation time: 0 hr 14 min 44 sec) 
Heartbeat CPU  0 instructions:  401000002 cycles:  531837758 heartbeat IPC: 0.71507 cumulative IPC: 0.62461 (Simulation time: 0 hr 14 min 46 sec) 
Heartbeat CPU  0 instructions:  402000000 cycles:  533275521 heartbeat IPC: 0.69552 cumulative IPC: 0.62483 (Simulation time: 0 hr 14 min 48 sec) 
Heartbeat CPU  0 instructions:  403000000 cycles:  534661991 heartbeat IPC: 0.72126 cumulative IPC: 0.62510 (Simulation time: 0 hr 14 min 51 sec) 
Heartbeat CPU  0 instructions:  404000000 cycles:  536289379 heartbeat IPC: 0.61448 cumulative IPC: 0.62507 (Simulation time: 0 hr 14 min 53 sec) 
Heartbeat CPU  0 instructions:  405000003 cycles:  538382174 heartbeat IPC: 0.47783 cumulative IPC: 0.62444 (Simulation time: 0 hr 14 min 55 sec) 
Heartbeat CPU  0 instructions:  406000003 cycles:  540285000 heartbeat IPC: 0.52553 cumulative IPC: 0.62405 (Simulation time: 0 hr 14 min 58 sec) 
Heartbeat CPU  0 instructions:  407000000 cycles:  541939657 heartbeat IPC: 0.60435 cumulative IPC: 0.62399 (Simulation time: 0 hr 15 min 0 sec) 
Heartbeat CPU  0 instructions:  408000000 cycles:  543593280 heartbeat IPC: 0.60473 cumulative IPC: 0.62392 (Simulation time: 0 hr 15 min 3 sec) 
Heartbeat CPU  0 instructions:  409000003 cycles:  545248834 heartbeat IPC: 0.60403 cumulative IPC: 0.62385 (Simulation time: 0 hr 15 min 5 sec) 
Heartbeat CPU  0 instructions:  410000002 cycles:  546906072 heartbeat IPC: 0.60341 cumulative IPC: 0.62379 (Simulation time: 0 hr 15 min 8 sec) 
Heartbeat CPU  0 instructions:  411000000 cycles:  548565964 heartbeat IPC: 0.60245 cumulative IPC: 0.62372 (Simulation time: 0 hr 15 min 10 sec) 
Heartbeat CPU  0 instructions:  412000000 cycles:  550237993 heartbeat IPC: 0.59808 cumulative IPC: 0.62363 (Simulation time: 0 hr 15 min 13 sec) 
Heartbeat CPU  0 instructions:  413000001 cycles:  551902760 heartbeat IPC: 0.60069 cumulative IPC: 0.62355 (Simulation time: 0 hr 15 min 15 sec) 
Heartbeat CPU  0 instructions:  414000000 cycles:  553560351 heartbeat IPC: 0.60328 cumulative IPC: 0.62349 (Simulation time: 0 hr 15 min 18 sec) 
Heartbeat CPU  0 instructions:  415000003 cycles:  555220046 heartbeat IPC: 0.60252 cumulative IPC: 0.62342 (Simulation time: 0 hr 15 min 20 sec) 
Heartbeat CPU  0 instructions:  416000000 cycles:  557587046 heartbeat IPC: 0.42247 cumulative IPC: 0.62248 (Simulation time: 0 hr 15 min 23 sec) 
Heartbeat CPU  0 instructions:  417000001 cycles:  559240367 heartbeat IPC: 0.60484 cumulative IPC: 0.62242 (Simulation time: 0 hr 15 min 25 sec) 
Heartbeat CPU  0 instructions:  418000003 cycles:  560896210 heartbeat IPC: 0.60392 cumulative IPC: 0.62236 (Simulation time: 0 hr 15 min 27 sec) 
Heartbeat CPU  0 instructions:  419000002 cycles:  562551217 heartbeat IPC: 0.60423 cumulative IPC: 0.62231 (Simulation time: 0 hr 15 min 30 sec) 
Heartbeat CPU  0 instructions:  420000000 cycles:  564206785 heartbeat IPC: 0.60402 cumulative IPC: 0.62225 (Simulation time: 0 hr 15 min 32 sec) 
Heartbeat CPU  0 instructions:  421000003 cycles:  565862544 heartbeat IPC: 0.60395 cumulative IPC: 0.62219 (Simulation time: 0 hr 15 min 35 sec) 
Heartbeat CPU  0 instructions:  422000003 cycles:  567518138 heartbeat IPC: 0.60401 cumulative IPC: 0.62213 (Simulation time: 0 hr 15 min 37 sec) 
Heartbeat CPU  0 instructions:  423000002 cycles:  569171305 heartbeat IPC: 0.60490 cumulative IPC: 0.62207 (Simulation time: 0 hr 15 min 39 sec) 
Heartbeat CPU  0 instructions:  424000000 cycles:  570826526 heartbeat IPC: 0.60415 cumulative IPC: 0.62202 (Simulation time: 0 hr 15 min 42 sec) 
Heartbeat CPU  0 instructions:  425000003 cycles:  572480424 heartbeat IPC: 0.60463 cumulative IPC: 0.62196 (Simulation time: 0 hr 15 min 44 sec) 
Heartbeat CPU  0 instructions:  426000001 cycles:  574697818 heartbeat IPC: 0.45098 cumulative IPC: 0.62124 (Simulation time: 0 hr 15 min 47 sec) 
Heartbeat CPU  0 instructions:  427000003 cycles:  576505976 heartbeat IPC: 0.55305 cumulative IPC: 0.62101 (Simulation time: 0 hr 15 min 49 sec) 
Heartbeat CPU  0 instructions:  428000000 cycles:  578161537 heartbeat IPC: 0.60402 cumulative IPC: 0.62095 (Simulation time: 0 hr 15 min 52 sec) 
Heartbeat CPU  0 instructions:  429000000 cycles:  579822550 heartbeat IPC: 0.60204 cumulative IPC: 0.62089 (Simulation time: 0 hr 15 min 54 sec) 
Heartbeat CPU  0 instructions:  430000003 cycles:  581482950 heartbeat IPC: 0.60227 cumulative IPC: 0.62084 (Simulation time: 0 hr 15 min 57 sec) 
Heartbeat CPU  0 instructions:  431000002 cycles:  583139443 heartbeat IPC: 0.60368 cumulative IPC: 0.62078 (Simulation time: 0 hr 15 min 59 sec) 
Heartbeat CPU  0 instructions:  432000000 cycles:  584804705 heartbeat IPC: 0.60050 cumulative IPC: 0.62072 (Simulation time: 0 hr 16 min 1 sec) 
Heartbeat CPU  0 instructions:  433000001 cycles:  586460040 heartbeat IPC: 0.60411 cumulative IPC: 0.62067 (Simulation time: 0 hr 16 min 4 sec) 
Heartbeat CPU  0 instructions:  434000001 cycles:  588117611 heartbeat IPC: 0.60329 cumulative IPC: 0.62061 (Simulation time: 0 hr 16 min 6 sec) 
Heartbeat CPU  0 instructions:  435000002 cycles:  589771302 heartbeat IPC: 0.60471 cumulative IPC: 0.62057 (Simulation time: 0 hr 16 min 9 sec) 
Heartbeat CPU  0 instructions:  436000000 cycles:  591532952 heartbeat IPC: 0.56765 cumulative IPC: 0.62039 (Simulation time: 0 hr 16 min 11 sec) 
Heartbeat CPU  0 instructions:  437000001 cycles:  593807265 heartbeat IPC: 0.43969 cumulative IPC: 0.61964 (Simulation time: 0 hr 16 min 14 sec) 
Heartbeat CPU  0 instructions:  438000003 cycles:  595461390 heartbeat IPC: 0.60455 cumulative IPC: 0.61959 (Simulation time: 0 hr 16 min 16 sec) 
Heartbeat CPU  0 instructions:  439000003 cycles:  597118807 heartbeat IPC: 0.60335 cumulative IPC: 0.61954 (Simulation time: 0 hr 16 min 18 sec) 
Heartbeat CPU  0 instructions:  440000000 cycles:  598773970 heartbeat IPC: 0.60417 cumulative IPC: 0.61950 (Simulation time: 0 hr 16 min 21 sec) 
Heartbeat CPU  0 instructions:  441000000 cycles:  600430783 heartbeat IPC: 0.60357 cumulative IPC: 0.61945 (Simulation time: 0 hr 16 min 23 sec) 
Heartbeat CPU  0 instructions:  442000003 cycles:  602112603 heartbeat IPC: 0.59460 cumulative IPC: 0.61937 (Simulation time: 0 hr 16 min 26 sec) 
Heartbeat CPU  0 instructions:  443000003 cycles:  603766905 heartbeat IPC: 0.60448 cumulative IPC: 0.61933 (Simulation time: 0 hr 16 min 28 sec) 
Heartbeat CPU  0 instructions:  444000000 cycles:  605421412 heartbeat IPC: 0.60441 cumulative IPC: 0.61928 (Simulation time: 0 hr 16 min 30 sec) 
Heartbeat CPU  0 instructions:  445000000 cycles:  607076422 heartbeat IPC: 0.60423 cumulative IPC: 0.61924 (Simulation time: 0 hr 16 min 33 sec) 
Heartbeat CPU  0 instructions:  446000001 cycles:  608735229 heartbeat IPC: 0.60284 cumulative IPC: 0.61919 (Simulation time: 0 hr 16 min 35 sec) 
Heartbeat CPU  0 instructions:  447000000 cycles:  611052007 heartbeat IPC: 0.43163 cumulative IPC: 0.61842 (Simulation time: 0 hr 16 min 38 sec) 
Heartbeat CPU  0 instructions:  448000000 cycles:  612761183 heartbeat IPC: 0.58508 cumulative IPC: 0.61831 (Simulation time: 0 hr 16 min 40 sec) 
Heartbeat CPU  0 instructions:  449000002 cycles:  614416237 heartbeat IPC: 0.60421 cumulative IPC: 0.61827 (Simulation time: 0 hr 16 min 43 sec) 
Heartbeat CPU  0 instructions:  450000000 cycles:  616070041 heartbeat IPC: 0.60467 cumulative IPC: 0.61823 (Simulation time: 0 hr 16 min 45 sec) 
Heartbeat CPU  0 instructions:  451000003 cycles:  617726134 heartbeat IPC: 0.60383 cumulative IPC: 0.61819 (Simulation time: 0 hr 16 min 47 sec) 
Heartbeat CPU  0 instructions:  452000000 cycles:  619385046 heartbeat IPC: 0.60280 cumulative IPC: 0.61815 (Simulation time: 0 hr 16 min 50 sec) 
Heartbeat CPU  0 instructions:  453000002 cycles:  621038463 heartbeat IPC: 0.60481 cumulative IPC: 0.61811 (Simulation time: 0 hr 16 min 52 sec) 
Heartbeat CPU  0 instructions:  454000003 cycles:  622694474 heartbeat IPC: 0.60386 cumulative IPC: 0.61807 (Simulation time: 0 hr 16 min 55 sec) 
Heartbeat CPU  0 instructions:  455000001 cycles:  624347503 heartbeat IPC: 0.60495 cumulative IPC: 0.61803 (Simulation time: 0 hr 16 min 57 sec) 
Heartbeat CPU  0 instructions:  456000000 cycles:  626005171 heartbeat IPC: 0.60326 cumulative IPC: 0.61799 (Simulation time: 0 hr 16 min 59 sec) 
Heartbeat CPU  0 instructions:  457000002 cycles:  627848847 heartbeat IPC: 0.54240 cumulative IPC: 0.61775 (Simulation time: 0 hr 17 min 2 sec) 
Heartbeat CPU  0 instructions:  458000002 cycles:  630483391 heartbeat IPC: 0.37957 cumulative IPC: 0.61666 (Simulation time: 0 hr 17 min 5 sec) 
Heartbeat CPU  0 instructions:  459000002 cycles:  633095302 heartbeat IPC: 0.38286 cumulative IPC: 0.61562 (Simulation time: 0 hr 17 min 7 sec) 
Heartbeat CPU  0 instructions:  460000000 cycles:  635655055 heartbeat IPC: 0.39066 cumulative IPC: 0.61463 (Simulation time: 0 hr 17 min 10 sec) 
Heartbeat CPU  0 instructions:  461000002 cycles:  638215118 heartbeat IPC: 0.39062 cumulative IPC: 0.61366 (Simulation time: 0 hr 17 min 13 sec) 
Heartbeat CPU  0 instructions:  462000002 cycles:  640779030 heartbeat IPC: 0.39003 cumulative IPC: 0.61269 (Simulation time: 0 hr 17 min 15 sec) 
Heartbeat CPU  0 instructions:  463000002 cycles:  643338640 heartbeat IPC: 0.39068 cumulative IPC: 0.61173 (Simulation time: 0 hr 17 min 18 sec) 
Heartbeat CPU  0 instructions:  464000000 cycles:  645905573 heartbeat IPC: 0.38957 cumulative IPC: 0.61077 (Simulation time: 0 hr 17 min 21 sec) 
Heartbeat CPU  0 instructions:  465000000 cycles:  648459354 heartbeat IPC: 0.39158 cumulative IPC: 0.60984 (Simulation time: 0 hr 17 min 23 sec) 
Heartbeat CPU  0 instructions:  466000001 cycles:  651070187 heartbeat IPC: 0.38302 cumulative IPC: 0.60885 (Simulation time: 0 hr 17 min 26 sec) 
Heartbeat CPU  0 instructions:  467000000 cycles:  653585850 heartbeat IPC: 0.39751 cumulative IPC: 0.60797 (Simulation time: 0 hr 17 min 29 sec) 
Heartbeat CPU  0 instructions:  468000000 cycles:  656102591 heartbeat IPC: 0.39734 cumulative IPC: 0.60710 (Simulation time: 0 hr 17 min 31 sec) 
Heartbeat CPU  0 instructions:  469000003 cycles:  658599925 heartbeat IPC: 0.40043 cumulative IPC: 0.60625 (Simulation time: 0 hr 17 min 34 sec) 
Heartbeat CPU  0 instructions:  470000001 cycles:  661088055 heartbeat IPC: 0.40191 cumulative IPC: 0.60542 (Simulation time: 0 hr 17 min 36 sec) 
Heartbeat CPU  0 instructions:  471000003 cycles:  663571587 heartbeat IPC: 0.40265 cumulative IPC: 0.60460 (Simulation time: 0 hr 17 min 39 sec) 
Heartbeat CPU  0 instructions:  472000000 cycles:  666080937 heartbeat IPC: 0.39851 cumulative IPC: 0.60376 (Simulation time: 0 hr 17 min 42 sec) 
Heartbeat CPU  0 instructions:  473000000 cycles:  668662156 heartbeat IPC: 0.38741 cumulative IPC: 0.60286 (Simulation time: 0 hr 17 min 44 sec) 
Heartbeat CPU  0 instructions:  474000000 cycles:  671259646 heartbeat IPC: 0.38499 cumulative IPC: 0.60195 (Simulation time: 0 hr 17 min 47 sec) 
Heartbeat CPU  0 instructions:  475000002 cycles:  673814321 heartbeat IPC: 0.39144 cumulative IPC: 0.60108 (Simulation time: 0 hr 17 min 49 sec) 
Heartbeat CPU  0 instructions:  476000000 cycles:  676362099 heartbeat IPC: 0.39250 cumulative IPC: 0.60024 (Simulation time: 0 hr 17 min 52 sec) 
Heartbeat CPU  0 instructions:  477000002 cycles:  678896146 heartbeat IPC: 0.39463 cumulative IPC: 0.59941 (Simulation time: 0 hr 17 min 55 sec) 
Heartbeat CPU  0 instructions:  478000002 cycles:  681434141 heartbeat IPC: 0.39401 cumulative IPC: 0.59858 (Simulation time: 0 hr 17 min 57 sec) 
Heartbeat CPU  0 instructions:  479000002 cycles:  683919918 heartbeat IPC: 0.40229 cumulative IPC: 0.59781 (Simulation time: 0 hr 18 min 0 sec) 
Heartbeat CPU  0 instructions:  480000000 cycles:  686070770 heartbeat IPC: 0.46493 cumulative IPC: 0.59736 (Simulation time: 0 hr 18 min 3 sec) 
Heartbeat CPU  0 instructions:  481000002 cycles:  688126670 heartbeat IPC: 0.48641 cumulative IPC: 0.59700 (Simulation time: 0 hr 18 min 6 sec) 
Heartbeat CPU  0 instructions:  482000003 cycles:  690200419 heartbeat IPC: 0.48222 cumulative IPC: 0.59663 (Simulation time: 0 hr 18 min 9 sec) 
Heartbeat CPU  0 instructions:  483000000 cycles:  692190873 heartbeat IPC: 0.50240 cumulative IPC: 0.59634 (Simulation time: 0 hr 18 min 11 sec) 
Heartbeat CPU  0 instructions:  484000000 cycles:  694131406 heartbeat IPC: 0.51532 cumulative IPC: 0.59610 (Simulation time: 0 hr 18 min 14 sec) 
Heartbeat CPU  0 instructions:  485000003 cycles:  695981269 heartbeat IPC: 0.54058 cumulative IPC: 0.59594 (Simulation time: 0 hr 18 min 17 sec) 
Heartbeat CPU  0 instructions:  486000003 cycles:  697840872 heartbeat IPC: 0.53775 cumulative IPC: 0.59577 (Simulation time: 0 hr 18 min 19 sec) 
Heartbeat CPU  0 instructions:  487000000 cycles:  699743749 heartbeat IPC: 0.52552 cumulative IPC: 0.59557 (Simulation time: 0 hr 18 min 22 sec) 
Heartbeat CPU  0 instructions:  488000000 cycles:  701642287 heartbeat IPC: 0.52672 cumulative IPC: 0.59536 (Simulation time: 0 hr 18 min 25 sec) 
Heartbeat CPU  0 instructions:  489000000 cycles:  703530191 heartbeat IPC: 0.52969 cumulative IPC: 0.59517 (Simulation time: 0 hr 18 min 27 sec) 
Heartbeat CPU  0 instructions:  490000000 cycles:  705447594 heartbeat IPC: 0.52154 cumulative IPC: 0.59496 (Simulation time: 0 hr 18 min 30 sec) 
Heartbeat CPU  0 instructions:  491000001 cycles:  707352137 heartbeat IPC: 0.52506 cumulative IPC: 0.59476 (Simulation time: 0 hr 18 min 33 sec) 
Heartbeat CPU  0 instructions:  492000000 cycles:  709269539 heartbeat IPC: 0.52154 cumulative IPC: 0.59454 (Simulation time: 0 hr 18 min 36 sec) 
Heartbeat CPU  0 instructions:  493000001 cycles:  711195889 heartbeat IPC: 0.51912 cumulative IPC: 0.59432 (Simulation time: 0 hr 18 min 38 sec) 
Heartbeat CPU  0 instructions:  494000000 cycles:  713080181 heartbeat IPC: 0.53070 cumulative IPC: 0.59414 (Simulation time: 0 hr 18 min 41 sec) 
Heartbeat CPU  0 instructions:  495000001 cycles:  715008389 heartbeat IPC: 0.51862 cumulative IPC: 0.59392 (Simulation time: 0 hr 18 min 44 sec) 
Heartbeat CPU  0 instructions:  496000000 cycles:  716916456 heartbeat IPC: 0.52409 cumulative IPC: 0.59372 (Simulation time: 0 hr 18 min 46 sec) 
Heartbeat CPU  0 instructions:  497000001 cycles:  718832594 heartbeat IPC: 0.52188 cumulative IPC: 0.59352 (Simulation time: 0 hr 18 min 49 sec) 
Heartbeat CPU  0 instructions:  498000000 cycles:  720745236 heartbeat IPC: 0.52284 cumulative IPC: 0.59332 (Simulation time: 0 hr 18 min 52 sec) 
Heartbeat CPU  0 instructions:  499000002 cycles:  722689819 heartbeat IPC: 0.51425 cumulative IPC: 0.59309 (Simulation time: 0 hr 18 min 54 sec) 
Heartbeat CPU  0 instructions:  500000000 cycles:  724633351 heartbeat IPC: 0.51453 cumulative IPC: 0.59286 (Simulation time: 0 hr 18 min 57 sec) 
Heartbeat CPU  0 instructions:  501000002 cycles:  726551356 heartbeat IPC: 0.52138 cumulative IPC: 0.59266 (Simulation time: 0 hr 19 min 0 sec) 
Heartbeat CPU  0 instructions:  502000003 cycles:  728457140 heartbeat IPC: 0.52472 cumulative IPC: 0.59247 (Simulation time: 0 hr 19 min 3 sec) 
Heartbeat CPU  0 instructions:  503000000 cycles:  730393918 heartbeat IPC: 0.51632 cumulative IPC: 0.59225 (Simulation time: 0 hr 19 min 5 sec) 
Heartbeat CPU  0 instructions:  504000000 cycles:  732351824 heartbeat IPC: 0.51075 cumulative IPC: 0.59202 (Simulation time: 0 hr 19 min 8 sec) 
Heartbeat CPU  0 instructions:  505000001 cycles:  734324393 heartbeat IPC: 0.50695 cumulative IPC: 0.59177 (Simulation time: 0 hr 19 min 11 sec) 
Heartbeat CPU  0 instructions:  506000000 cycles:  736262871 heartbeat IPC: 0.51587 cumulative IPC: 0.59156 (Simulation time: 0 hr 19 min 13 sec) 
Heartbeat CPU  0 instructions:  507000003 cycles:  738228248 heartbeat IPC: 0.50881 cumulative IPC: 0.59132 (Simulation time: 0 hr 19 min 16 sec) 
Heartbeat CPU  0 instructions:  508000000 cycles:  740178599 heartbeat IPC: 0.51273 cumulative IPC: 0.59110 (Simulation time: 0 hr 19 min 19 sec) 
Heartbeat CPU  0 instructions:  509000002 cycles:  742151642 heartbeat IPC: 0.50683 cumulative IPC: 0.59086 (Simulation time: 0 hr 19 min 22 sec) 
Heartbeat CPU  0 instructions:  510000000 cycles:  744096706 heartbeat IPC: 0.51412 cumulative IPC: 0.59065 (Simulation time: 0 hr 19 min 24 sec) 
Heartbeat CPU  0 instructions:  511000002 cycles:  745862139 heartbeat IPC: 0.56643 cumulative IPC: 0.59058 (Simulation time: 0 hr 19 min 27 sec) 
Heartbeat CPU  0 instructions:  512000000 cycles:  747434083 heartbeat IPC: 0.63615 cumulative IPC: 0.59069 (Simulation time: 0 hr 19 min 29 sec) 
Heartbeat CPU  0 instructions:  513000000 cycles:  748920622 heartbeat IPC: 0.67270 cumulative IPC: 0.59086 (Simulation time: 0 hr 19 min 32 sec) 
Heartbeat CPU  0 instructions:  514000003 cycles:  750244137 heartbeat IPC: 0.75557 cumulative IPC: 0.59117 (Simulation time: 0 hr 19 min 34 sec) 
Heartbeat CPU  0 instructions:  515000002 cycles:  751712131 heartbeat IPC: 0.68120 cumulative IPC: 0.59136 (Simulation time: 0 hr 19 min 36 sec) 
Heartbeat CPU  0 instructions:  516000000 cycles:  753166444 heartbeat IPC: 0.68761 cumulative IPC: 0.59156 (Simulation time: 0 hr 19 min 38 sec) 
Heartbeat CPU  0 instructions:  517000001 cycles:  754606567 heartbeat IPC: 0.69439 cumulative IPC: 0.59177 (Simulation time: 0 hr 19 min 41 sec) 
Heartbeat CPU  0 instructions:  518000003 cycles:  755935849 heartbeat IPC: 0.75229 cumulative IPC: 0.59207 (Simulation time: 0 hr 19 min 43 sec) 
Heartbeat CPU  0 instructions:  519000001 cycles:  757238957 heartbeat IPC: 0.76739 cumulative IPC: 0.59240 (Simulation time: 0 hr 19 min 45 sec) 
Heartbeat CPU  0 instructions:  520000000 cycles:  758601523 heartbeat IPC: 0.73391 cumulative IPC: 0.59267 (Simulation time: 0 hr 19 min 47 sec) 
Heartbeat CPU  0 instructions:  521000002 cycles:  759926051 heartbeat IPC: 0.75499 cumulative IPC: 0.59297 (Simulation time: 0 hr 19 min 50 sec) 
Heartbeat CPU  0 instructions:  522000002 cycles:  761277948 heartbeat IPC: 0.73970 cumulative IPC: 0.59325 (Simulation time: 0 hr 19 min 52 sec) 
Heartbeat CPU  0 instructions:  523000000 cycles:  762500213 heartbeat IPC: 0.81815 cumulative IPC: 0.59363 (Simulation time: 0 hr 19 min 54 sec) 
Heartbeat CPU  0 instructions:  524000000 cycles:  763829378 heartbeat IPC: 0.75235 cumulative IPC: 0.59393 (Simulation time: 0 hr 19 min 56 sec) 
Heartbeat CPU  0 instructions:  525000003 cycles:  765163870 heartbeat IPC: 0.74935 cumulative IPC: 0.59422 (Simulation time: 0 hr 19 min 58 sec) 
Heartbeat CPU  0 instructions:  526000000 cycles:  766489535 heartbeat IPC: 0.75434 cumulative IPC: 0.59452 (Simulation time: 0 hr 20 min 0 sec) 
Heartbeat CPU  0 instructions:  527000003 cycles:  767812982 heartbeat IPC: 0.75560 cumulative IPC: 0.59481 (Simulation time: 0 hr 20 min 3 sec) 
Heartbeat CPU  0 instructions:  528000000 cycles:  769071020 heartbeat IPC: 0.79489 cumulative IPC: 0.59516 (Simulation time: 0 hr 20 min 5 sec) 
Heartbeat CPU  0 instructions:  529000003 cycles:  770392450 heartbeat IPC: 0.75676 cumulative IPC: 0.59546 (Simulation time: 0 hr 20 min 7 sec) 
Heartbeat CPU  0 instructions:  530000001 cycles:  771721241 heartbeat IPC: 0.75256 cumulative IPC: 0.59575 (Simulation time: 0 hr 20 min 9 sec) 
Heartbeat CPU  0 instructions:  531000000 cycles:  773050707 heartbeat IPC: 0.75218 cumulative IPC: 0.59604 (Simulation time: 0 hr 20 min 11 sec) 
Heartbeat CPU  0 instructions:  532000000 cycles:  774316076 heartbeat IPC: 0.79028 cumulative IPC: 0.59638 (Simulation time: 0 hr 20 min 14 sec) 
Heartbeat CPU  0 instructions:  533000001 cycles:  775633349 heartbeat IPC: 0.75914 cumulative IPC: 0.59667 (Simulation time: 0 hr 20 min 16 sec) 
Heartbeat CPU  0 instructions:  534000002 cycles:  776953373 heartbeat IPC: 0.75756 cumulative IPC: 0.59696 (Simulation time: 0 hr 20 min 18 sec) 
Heartbeat CPU  0 instructions:  535000000 cycles:  778288531 heartbeat IPC: 0.74897 cumulative IPC: 0.59724 (Simulation time: 0 hr 20 min 20 sec) 
Heartbeat CPU  0 instructions:  536000000 cycles:  779602944 heartbeat IPC: 0.76080 cumulative IPC: 0.59754 (Simulation time: 0 hr 20 min 22 sec) 
Heartbeat CPU  0 instructions:  537000002 cycles:  780883436 heartbeat IPC: 0.78095 cumulative IPC: 0.59786 (Simulation time: 0 hr 20 min 25 sec) 
Heartbeat CPU  0 instructions:  538000002 cycles:  782235083 heartbeat IPC: 0.73984 cumulative IPC: 0.59812 (Simulation time: 0 hr 20 min 27 sec) 
Heartbeat CPU  0 instructions:  539000000 cycles:  783561673 heartbeat IPC: 0.75381 cumulative IPC: 0.59840 (Simulation time: 0 hr 20 min 29 sec) 
Heartbeat CPU  0 instructions:  540000000 cycles:  784915132 heartbeat IPC: 0.73885 cumulative IPC: 0.59866 (Simulation time: 0 hr 20 min 31 sec) 
Heartbeat CPU  0 instructions:  541000000 cycles:  786176005 heartbeat IPC: 0.79310 cumulative IPC: 0.59899 (Simulation time: 0 hr 20 min 33 sec) 
Heartbeat CPU  0 instructions:  542000002 cycles:  787517652 heartbeat IPC: 0.74535 cumulative IPC: 0.59926 (Simulation time: 0 hr 20 min 36 sec) 
Heartbeat CPU  0 instructions:  543000001 cycles:  788875969 heartbeat IPC: 0.73620 cumulative IPC: 0.59951 (Simulation time: 0 hr 20 min 38 sec) 
Heartbeat CPU  0 instructions:  544000000 cycles:  790200858 heartbeat IPC: 0.75478 cumulative IPC: 0.59979 (Simulation time: 0 hr 20 min 40 sec) 
Heartbeat CPU  0 instructions:  545000001 cycles:  791532280 heartbeat IPC: 0.75108 cumulative IPC: 0.60006 (Simulation time: 0 hr 20 min 42 sec) 
Heartbeat CPU  0 instructions:  546000003 cycles:  792790641 heartbeat IPC: 0.79469 cumulative IPC: 0.60039 (Simulation time: 0 hr 20 min 44 sec) 
Heartbeat CPU  0 instructions:  547000000 cycles:  794151788 heartbeat IPC: 0.73467 cumulative IPC: 0.60064 (Simulation time: 0 hr 20 min 47 sec) 
Heartbeat CPU  0 instructions:  548000000 cycles:  795513523 heartbeat IPC: 0.73436 cumulative IPC: 0.60088 (Simulation time: 0 hr 20 min 49 sec) 
Heartbeat CPU  0 instructions:  549000001 cycles:  796840414 heartbeat IPC: 0.75364 cumulative IPC: 0.60115 (Simulation time: 0 hr 20 min 51 sec) 
Heartbeat CPU  0 instructions:  550000001 cycles:  798091598 heartbeat IPC: 0.79924 cumulative IPC: 0.60148 (Simulation time: 0 hr 20 min 53 sec) 
Heartbeat CPU  0 instructions:  551000002 cycles:  799398704 heartbeat IPC: 0.76505 cumulative IPC: 0.60177 (Simulation time: 0 hr 20 min 56 sec) 
Heartbeat CPU  0 instructions:  552000000 cycles:  800733258 heartbeat IPC: 0.74931 cumulative IPC: 0.60203 (Simulation time: 0 hr 20 min 58 sec) 
Heartbeat CPU  0 instructions:  553000002 cycles:  802087929 heartbeat IPC: 0.73819 cumulative IPC: 0.60228 (Simulation time: 0 hr 21 min 0 sec) 
Heartbeat CPU  0 instructions:  554000002 cycles:  803412475 heartbeat IPC: 0.75498 cumulative IPC: 0.60254 (Simulation time: 0 hr 21 min 2 sec) 
Heartbeat CPU  0 instructions:  555000001 cycles:  804631982 heartbeat IPC: 0.82000 cumulative IPC: 0.60290 (Simulation time: 0 hr 21 min 4 sec) 
Heartbeat CPU  0 instructions:  556000000 cycles:  805967167 heartbeat IPC: 0.74896 cumulative IPC: 0.60315 (Simulation time: 0 hr 21 min 6 sec) 
Heartbeat CPU  0 instructions:  557000003 cycles:  807302470 heartbeat IPC: 0.74890 cumulative IPC: 0.60341 (Simulation time: 0 hr 21 min 9 sec) 
Heartbeat CPU  0 instructions:  558000001 cycles:  808657587 heartbeat IPC: 0.73794 cumulative IPC: 0.60365 (Simulation time: 0 hr 21 min 11 sec) 
Heartbeat CPU  0 instructions:  559000001 cycles:  809950554 heartbeat IPC: 0.77341 cumulative IPC: 0.60394 (Simulation time: 0 hr 21 min 13 sec) 
Heartbeat CPU  0 instructions:  560000000 cycles:  811213178 heartbeat IPC: 0.79200 cumulative IPC: 0.60425 (Simulation time: 0 hr 21 min 15 sec) 
Heartbeat CPU  0 instructions:  561000003 cycles:  812554303 heartbeat IPC: 0.74564 cumulative IPC: 0.60450 (Simulation time: 0 hr 21 min 18 sec) 
Heartbeat CPU  0 instructions:  562000001 cycles:  813890693 heartbeat IPC: 0.74828 cumulative IPC: 0.60475 (Simulation time: 0 hr 21 min 20 sec) 
Heartbeat CPU  0 instructions:  563000003 cycles:  815227104 heartbeat IPC: 0.74827 cumulative IPC: 0.60500 (Simulation time: 0 hr 21 min 22 sec) 
Heartbeat CPU  0 instructions:  564000000 cycles:  816473425 heartbeat IPC: 0.80236 cumulative IPC: 0.60532 (Simulation time: 0 hr 21 min 24 sec) 
Heartbeat CPU  0 instructions:  565000002 cycles:  817790773 heartbeat IPC: 0.75910 cumulative IPC: 0.60559 (Simulation time: 0 hr 21 min 26 sec) 
Heartbeat CPU  0 instructions:  566000002 cycles:  819113392 heartbeat IPC: 0.75608 cumulative IPC: 0.60585 (Simulation time: 0 hr 21 min 29 sec) 
Heartbeat CPU  0 instructions:  567000000 cycles:  820442682 heartbeat IPC: 0.75228 cumulative IPC: 0.60610 (Simulation time: 0 hr 21 min 31 sec) 
Heartbeat CPU  0 instructions:  568000000 cycles:  821756124 heartbeat IPC: 0.76136 cumulative IPC: 0.60636 (Simulation time: 0 hr 21 min 33 sec) 
Heartbeat CPU  0 instructions:  569000002 cycles:  823043007 heartbeat IPC: 0.77707 cumulative IPC: 0.60665 (Simulation time: 0 hr 21 min 35 sec) 
Heartbeat CPU  0 instructions:  570000001 cycles:  824371884 heartbeat IPC: 0.75251 cumulative IPC: 0.60690 (Simulation time: 0 hr 21 min 37 sec) 
Heartbeat CPU  0 instructions:  571000000 cycles:  825703957 heartbeat IPC: 0.75071 cumulative IPC: 0.60714 (Simulation time: 0 hr 21 min 40 sec) 
Heartbeat CPU  0 instructions:  572000000 cycles:  827027902 heartbeat IPC: 0.75532 cumulative IPC: 0.60740 (Simulation time: 0 hr 21 min 42 sec) 
Heartbeat CPU  0 instructions:  573000002 cycles:  828272544 heartbeat IPC: 0.80345 cumulative IPC: 0.60771 (Simulation time: 0 hr 21 min 44 sec) 
Heartbeat CPU  0 instructions:  574000002 cycles:  829609598 heartbeat IPC: 0.74791 cumulative IPC: 0.60795 (Simulation time: 0 hr 21 min 46 sec) 
Heartbeat CPU  0 instructions:  575000000 cycles:  830924079 heartbeat IPC: 0.76076 cumulative IPC: 0.60821 (Simulation time: 0 hr 21 min 48 sec) 
Heartbeat CPU  0 instructions:  576000000 cycles:  832228207 heartbeat IPC: 0.76680 cumulative IPC: 0.60847 (Simulation time: 0 hr 21 min 51 sec) 
Heartbeat CPU  0 instructions:  577000002 cycles:  833531899 heartbeat IPC: 0.76705 cumulative IPC: 0.60874 (Simulation time: 0 hr 21 min 53 sec) 
Heartbeat CPU  0 instructions:  578000002 cycles:  834776985 heartbeat IPC: 0.80316 cumulative IPC: 0.60904 (Simulation time: 0 hr 21 min 55 sec) 
Heartbeat CPU  0 instructions:  579000001 cycles:  836125585 heartbeat IPC: 0.74151 cumulative IPC: 0.60927 (Simulation time: 0 hr 21 min 57 sec) 
Heartbeat CPU  0 instructions:  580000000 cycles:  837445844 heartbeat IPC: 0.75743 cumulative IPC: 0.60952 (Simulation time: 0 hr 21 min 59 sec) 
Heartbeat CPU  0 instructions:  581000002 cycles:  838759510 heartbeat IPC: 0.76123 cumulative IPC: 0.60977 (Simulation time: 0 hr 22 min 2 sec) 
Heartbeat CPU  0 instructions:  582000003 cycles:  840005096 heartbeat IPC: 0.80284 cumulative IPC: 0.61008 (Simulation time: 0 hr 22 min 4 sec) 
Heartbeat CPU  0 instructions:  583000002 cycles:  841311670 heartbeat IPC: 0.76536 cumulative IPC: 0.61033 (Simulation time: 0 hr 22 min 6 sec) 
Heartbeat CPU  0 instructions:  584000000 cycles:  842660777 heartbeat IPC: 0.74123 cumulative IPC: 0.61056 (Simulation time: 0 hr 22 min 8 sec) 
Heartbeat CPU  0 instructions:  585000003 cycles:  843995827 heartbeat IPC: 0.74904 cumulative IPC: 0.61079 (Simulation time: 0 hr 22 min 11 sec) 
Heartbeat CPU  0 instructions:  586000000 cycles:  845285221 heartbeat IPC: 0.77556 cumulative IPC: 0.61106 (Simulation time: 0 hr 22 min 13 sec) 
Heartbeat CPU  0 instructions:  587000002 cycles:  846528541 heartbeat IPC: 0.80430 cumulative IPC: 0.61136 (Simulation time: 0 hr 22 min 15 sec) 
Heartbeat CPU  0 instructions:  588000000 cycles:  847859911 heartbeat IPC: 0.75110 cumulative IPC: 0.61159 (Simulation time: 0 hr 22 min 17 sec) 
Heartbeat CPU  0 instructions:  589000002 cycles:  849204030 heartbeat IPC: 0.74398 cumulative IPC: 0.61181 (Simulation time: 0 hr 22 min 19 sec) 
Heartbeat CPU  0 instructions:  590000001 cycles:  850556812 heartbeat IPC: 0.73922 cumulative IPC: 0.61203 (Simulation time: 0 hr 22 min 22 sec) 
Heartbeat CPU  0 instructions:  591000003 cycles:  851811660 heartbeat IPC: 0.79691 cumulative IPC: 0.61232 (Simulation time: 0 hr 22 min 24 sec) 
Heartbeat CPU  0 instructions:  592000000 cycles:  853104841 heartbeat IPC: 0.77328 cumulative IPC: 0.61258 (Simulation time: 0 hr 22 min 26 sec) 
Heartbeat CPU  0 instructions:  593000002 cycles:  854434893 heartbeat IPC: 0.75185 cumulative IPC: 0.61281 (Simulation time: 0 hr 22 min 28 sec) 
Heartbeat CPU  0 instructions:  594000003 cycles:  855777185 heartbeat IPC: 0.74500 cumulative IPC: 0.61303 (Simulation time: 0 hr 22 min 30 sec) 
Heartbeat CPU  0 instructions:  595000001 cycles:  857123348 heartbeat IPC: 0.74285 cumulative IPC: 0.61324 (Simulation time: 0 hr 22 min 33 sec) 
Heartbeat CPU  0 instructions:  596000000 cycles:  858346985 heartbeat IPC: 0.81723 cumulative IPC: 0.61355 (Simulation time: 0 hr 22 min 35 sec) 
Heartbeat CPU  0 instructions:  597000000 cycles:  859681532 heartbeat IPC: 0.74932 cumulative IPC: 0.61378 (Simulation time: 0 hr 22 min 37 sec) 
Heartbeat CPU  0 instructions:  598000001 cycles:  861018723 heartbeat IPC: 0.74784 cumulative IPC: 0.61400 (Simulation time: 0 hr 22 min 39 sec) 
Heartbeat CPU  0 instructions:  599000003 cycles:  862354802 heartbeat IPC: 0.74846 cumulative IPC: 0.61422 (Simulation time: 0 hr 22 min 41 sec) 
Heartbeat CPU  0 instructions:  600000000 cycles:  863667029 heartbeat IPC: 0.76206 cumulative IPC: 0.61446 (Simulation time: 0 hr 22 min 44 sec) 
Finished CPU 0 instructions: 500000002 cycles: 813726145 cumulative IPC: 0.61446 (Simulation time: 0 hr 22 min 44 sec) 

ChampSim completed all CPUs

[ROI Statistics]
Core_0_instructions 500000002
Core_0_cycles 813726145
Core_0_IPC 0.61446

Core_0_branch_prediction_accuracy 99.14890
Core_0_branch_MPKI 0.20164
Core_0_average_ROB_occupancy_at_mispredict 245.44679

Core_0_L1D_total_access 145627456
Core_0_L1D_total_hit 139998931
Core_0_L1D_total_miss 5628525
Core_0_L1D_loads 133422531
Core_0_L1D_load_hit 129124473
Core_0_L1D_load_miss 4298058
Core_0_L1D_RFOs 12204925
Core_0_L1D_RFO_hit 10874458
Core_0_L1D_RFO_miss 1330467
Core_0_L1D_prefetches 0
Core_0_L1D_prefetch_hit 0
Core_0_L1D_prefetch_miss 0
Core_0_L1D_writebacks 0
Core_0_L1D_writeback_hit 0
Core_0_L1D_writeback_miss 0
Core_0_L1D_prefetch_requested 0
Core_0_L1D_prefetch_dropped 0
Core_0_L1D_prefetch_issued 0
Core_0_L1D_prefetch_filled 0
Core_0_L1D_prefetch_useful 0
Core_0_L1D_prefetch_useless 0
Core_0_L1D_prefetch_late 0
Core_0_L1D_average_miss_latency 150.21019

Core_0_L1D_rq_access 199055983
Core_0_L1D_rq_forward 0
Core_0_L1D_rq_merged 62781896
Core_0_L1D_rq_to_cache 136274087
Core_0_L1D_rq_full 0

Core_0_L1D_wq_access 15945109
Core_0_L1D_wq_forward 0
Core_0_L1D_wq_merged 0
Core_0_L1D_wq_to_cache 15945109
Core_0_L1D_wq_full 1522108

Core_0_L1D_pq_access 0
Core_0_L1D_pq_forward 0
Core_0_L1D_pq_merged 0
Core_0_L1D_pq_to_cache 0
Core_0_L1D_pq_full 0

Core_0_L1D_acc_epochs 839097
Core_0_L1D_acc_level_0 839097
Core_0_L1D_acc_level_1 0
Core_0_L1D_acc_level_2 0
Core_0_L1D_acc_level_3 0
Core_0_L1D_acc_level_4 0
Core_0_L1D_acc_level_5 0
Core_0_L1D_acc_level_6 0
Core_0_L1D_acc_level_7 0
Core_0_L1D_acc_level_8 0
Core_0_L1D_acc_level_9 0

Core_0_L1I_total_access 121025621
Core_0_L1I_total_hit 121025295
Core_0_L1I_total_miss 326
Core_0_L1I_loads 121025621
Core_0_L1I_load_hit 121025295
Core_0_L1I_load_miss 326
Core_0_L1I_RFOs 0
Core_0_L1I_RFO_hit 0
Core_0_L1I_RFO_miss 0
Core_0_L1I_prefetches 0
Core_0_L1I_prefetch_hit 0
Core_0_L1I_prefetch_miss 0
Core_0_L1I_writebacks 0
Core_0_L1I_writeback_hit 0
Core_0_L1I_writeback_miss 0
Core_0_L1I_prefetch_requested 0
Core_0_L1I_prefetch_dropped 0
Core_0_L1I_prefetch_issued 0
Core_0_L1I_prefetch_filled 0
Core_0_L1I_prefetch_useful 0
Core_0_L1I_prefetch_useless 0
Core_0_L1I_prefetch_late 0
Core_0_L1I_average_miss_latency 421.70245

Core_0_L1I_rq_access 500000003
Core_0_L1I_rq_forward 0
Core_0_L1I_rq_merged 378973309
Core_0_L1I_rq_to_cache 121026694
Core_0_L1I_rq_full 0

Core_0_L1I_wq_access 0
Core_0_L1I_wq_forward 0
Core_0_L1I_wq_merged 0
Core_0_L1I_wq_to_cache 0
Core_0_L1I_wq_full 0

Core_0_L1I_pq_access 0
Core_0_L1I_pq_forward 0
Core_0_L1I_pq_merged 0
Core_0_L1I_pq_to_cache 0
Core_0_L1I_pq_full 0

Core_0_L1I_acc_epochs 839097
Core_0_L1I_acc_level_0 839097
Core_0_L1I_acc_level_1 0
Core_0_L1I_acc_level_2 0
Core_0_L1I_acc_level_3 0
Core_0_L1I_acc_level_4 0
Core_0_L1I_acc_level_5 0
Core_0_L1I_acc_level_6 0
Core_0_L1I_acc_level_7 0
Core_0_L1I_acc_level_8 0
Core_0_L1I_acc_level_9 0

Core_0_L2C_total_access 7368958
Core_0_L2C_total_hit 3356729
Core_0_L2C_total_miss 4012229
Core_0_L2C_loads 4298338
Core_0_L2C_load_hit 1142476
Core_0_L2C_load_miss 3155862
Core_0_L2C_RFOs 1330299
Core_0_L2C_RFO_hit 475158
Core_0_L2C_RFO_miss 855141
Core_0_L2C_prefetches 0
Core_0_L2C_prefetch_hit 0
Core_0_L2C_prefetch_miss 0
Core_0_L2C_writebacks 1740321
Core_0_L2C_writeback_hit 1739095
Core_0_L2C_writeback_miss 1226
Core_0_L2C_prefetch_requested 0
Core_0_L2C_prefetch_dropped 0
Core_0_L2C_prefetch_issued 0
Core_0_L2C_prefetch_filled 0
Core_0_L2C_prefetch_useful 0
Core_0_L2C_prefetch_useless 0
Core_0_L2C_prefetch_late 0
Core_0_L2C_average_miss_latency 190.95729

Core_0_L2C_rq_access 5628851
Core_0_L2C_rq_forward 0
Core_0_L2C_rq_merged 0
Core_0_L2C_rq_to_cache 5628637
Core_0_L2C_rq_full 0

Core_0_L2C_wq_access 1740321
Core_0_L2C_wq_forward 214
Core_0_L2C_wq_merged 0
Core_0_L2C_wq_to_cache 1740321
Core_0_L2C_wq_full 0

Core_0_L2C_pq_access 0
Core_0_L2C_pq_forward 0
Core_0_L2C_pq_merged 0
Core_0_L2C_pq_to_cache 0
Core_0_L2C_pq_full 0

Core_0_L2C_acc_epochs 839097
Core_0_L2C_acc_level_0 839097
Core_0_L2C_acc_level_1 0
Core_0_L2C_acc_level_2 0
Core_0_L2C_acc_level_3 0
Core_0_L2C_acc_level_4 0
Core_0_L2C_acc_level_5 0
Core_0_L2C_acc_level_6 0
Core_0_L2C_acc_level_7 0
Core_0_L2C_acc_level_8 0
Core_0_L2C_acc_level_9 0

Core_0_LLC_total_access 5103662
Core_0_LLC_total_hit 1220275
Core_0_LLC_total_miss 3883387
Core_0_LLC_loads 3155862
Core_0_LLC_load_hit 649202
Core_0_LLC_load_miss 2506660
Core_0_LLC_RFOs 855141
Core_0_LLC_RFO_hit 169768
Core_0_LLC_RFO_miss 685373
Core_0_LLC_prefetches 0
Core_0_LLC_prefetch_hit 0
Core_0_LLC_prefetch_miss 0
Core_0_LLC_writebacks 1092659
Core_0_LLC_writeback_hit 401305
Core_0_LLC_writeback_miss 691354
Core_0_LLC_prefetch_requested 0
Core_0_LLC_prefetch_dropped 0
Core_0_LLC_prefetch_issued 0
Core_0_LLC_prefetch_filled 0
Core_0_LLC_prefetch_useful 0
Core_0_LLC_prefetch_useless 0
Core_0_LLC_prefetch_late 0
Core_0_LLC_average_miss_latency 166.21335

Core_0_LLC_rq_access 4011003
Core_0_LLC_rq_forward 0
Core_0_LLC_rq_merged 0
Core_0_LLC_rq_to_cache 4011003
Core_0_LLC_rq_full 0

Core_0_LLC_wq_access 1092659
Core_0_LLC_wq_forward 0
Core_0_LLC_wq_merged 0
Core_0_LLC_wq_to_cache 1092659
Core_0_LLC_wq_full 0

Core_0_LLC_pq_access 0
Core_0_LLC_pq_forward 0
Core_0_LLC_pq_merged 0
Core_0_LLC_pq_to_cache 0
Core_0_LLC_pq_full 0

Core_0_LLC_acc_epochs 843425
Core_0_LLC_acc_level_0 843425
Core_0_LLC_acc_level_1 0
Core_0_LLC_acc_level_2 0
Core_0_LLC_acc_level_3 0
Core_0_LLC_acc_level_4 0
Core_0_LLC_acc_level_5 0
Core_0_LLC_acc_level_6 0
Core_0_LLC_acc_level_7 0
Core_0_LLC_acc_level_8 0
Core_0_LLC_acc_level_9 0

Core_0_major_page_fault 0
Core_0_minor_page_fault 14851

Channel_0_RQ_row_buffer_hit 1044009
Channel_0_RQ_row_buffer_miss 2148024
Channel_0_WQ_row_buffer_hit 449854
Channel_0_WQ_row_buffer_miss 461251
Channel_0_WQ_full 511
Channel_0_dbus_congested 1466558

avg_congested_cycle 25

DRAM_bw_pochs 3373700
DRAM_bw_level_0 1857997
DRAM_bw_level_1 1003502
DRAM_bw_level_2 317330
DRAM_bw_level_3 194871
