*************************************************
   ChampSim Multicore Out-of-Order Simulator
   Last compiled: Dec 11 2024 17:59:53
*************************************************
parsing config file: /home/functionmain/桌面/Pythia/config/spp_dev2.ini

trace_0 /home/functionmain/桌面/Pythia/traces/437.leslie3d-149B.champsimtrace.xz
adding L2C_PREFETCHER: SPP_dev2
Initialize SIGNATURE TABLE
ST_SET: 1
ST_WAY: 256
ST_TAG_BIT: 16
ST_TAG_MASK: ffff

Initialize PATTERN TABLE
PT_SET: 512
PT_WAY: 4
SIG_DELTA_BIT: 7
C_SIG_BIT: 4
C_DELTA_BIT: 4

Initialize PREFETCH FILTER
FILTER_SET: 1024
fill_threshold: 90
pf_threshold: 40

Initialize SHIP state
warmup_instructions 100000000
simulation_instructions 500000000
champsim_seed 224
measure_ipc 0
measure_ipc_epoch 1000
measure_dram_bw 1
measure_dram_bw_epoch 256
measure_cache_acc 1
measure_cache_acc_epoch 1024
l1d_perfect 0
l2c_perfect 0
llc_perfect 0
l1d_semi_perfect 0
l2c_semi_perfect 0
llc_semi_perfect 0
semi_perfect_cache_page_buffer_size 64

num_cpus 1
cpu_freq 4000
dram_io_freq 9600
page_size 4096
block_size 64
max_read_per_cycle 8
max_fill_per_cycle 1
dram_channels 1
log2_dram_channels 0
dram_ranks 1
dram_banks 8
dram_rows 65536
dram_columns 128
dram_row_size 8
dram_size 4096
dram_pages 1048576

fetch_width 6
decode_width 6
exec_width 4
lq_width 2
sq_width 2
retire_width 4
scheduler_size 128
branch_mispredict_penalty 20
rob_size 256
lq_size 72
sq_size 56
num_instr_destinations_sparc 4
num_instr_destinations 2
num_instr_sources 4

itlb_set 16
itlb_way 8
itlb_rq_size 16
itlb_wq_size 16
itlb_pq_size 0
itlb_mshr_size 8
itlb_latency 1

dtlb_set 16
dtlb_way 4
dtlb_rq_size 16
dtlb_wq_size 16
dtlb_pq_size 0
dtlb_mshr_size 8
dtlb_latency 1

stlb_set 128
stlb_way 12
stlb_rq_size 32
stlb_wq_size 32
stlb_pq_size 0
stlb_mshr_size 16
stlb_latency 8

l1i_size 32
l1i_set 64
l1i_way 8
l1i_rq_size 64
l1i_wq_size 64
l1i_pq_size 8
l1i_mshr_size 8
l1i_latency 1

l1d_size 32
l1d_set 64
l1d_way 8
l1d_rq_size 64
l1d_wq_size 64
l1d_pq_size 8
l1d_mshr_size 16
l1d_latency 4

l2c_size 256
l2c_set 512
l2c_way 8
l2c_rq_size 32
l2c_wq_size 32
l2c_pq_size 32
l2c_mshr_size 32
l2c_latency 10

llc_size 2048
llc_set 2048
llc_way 16
llc_rq_size 32
llc_wq_size 32
llc_pq_size 32
llc_mshr_size 64
llc_latency 20

dram_channel_width 8
dram_wq_size 64
dram_rq_size 64
tRP 15
tRCD 15
tCAS 12.5
dram_dbus_turn_around_time 30
dram_write_high_wm 56
dram_write_low_wm 48
min_dram_writes_per_switch 16
dram_mtps 9600
dram_dbus_return_time 3


Heartbeat CPU  0 instructions:    1000002 cycles:     502625 heartbeat IPC: 1.98956 cumulative IPC: 1.98956 (Simulation time: 0 hr 0 min 2 sec) 
Heartbeat CPU  0 instructions:    2000001 cycles:     990802 heartbeat IPC: 2.04844 cumulative IPC: 2.01857 (Simulation time: 0 hr 0 min 4 sec) 
Heartbeat CPU  0 instructions:    3000003 cycles:    1492720 heartbeat IPC: 1.99236 cumulative IPC: 2.00976 (Simulation time: 0 hr 0 min 5 sec) 
Heartbeat CPU  0 instructions:    4000000 cycles:    1994454 heartbeat IPC: 1.99308 cumulative IPC: 2.00556 (Simulation time: 0 hr 0 min 7 sec) 
Heartbeat CPU  0 instructions:    5000000 cycles:    2496700 heartbeat IPC: 1.99106 cumulative IPC: 2.00264 (Simulation time: 0 hr 0 min 9 sec) 
Heartbeat CPU  0 instructions:    6000001 cycles:    2996445 heartbeat IPC: 2.00102 cumulative IPC: 2.00237 (Simulation time: 0 hr 0 min 11 sec) 
Heartbeat CPU  0 instructions:    7000000 cycles:    3486472 heartbeat IPC: 2.04070 cumulative IPC: 2.00776 (Simulation time: 0 hr 0 min 12 sec) 
Heartbeat CPU  0 instructions:    8000000 cycles:    3989432 heartbeat IPC: 1.98823 cumulative IPC: 2.00530 (Simulation time: 0 hr 0 min 14 sec) 
Heartbeat CPU  0 instructions:    9000002 cycles:    4491260 heartbeat IPC: 1.99272 cumulative IPC: 2.00389 (Simulation time: 0 hr 0 min 16 sec) 
Heartbeat CPU  0 instructions:   10000000 cycles:    4993172 heartbeat IPC: 1.99238 cumulative IPC: 2.00273 (Simulation time: 0 hr 0 min 18 sec) 
Heartbeat CPU  0 instructions:   11000002 cycles:    5484105 heartbeat IPC: 2.03694 cumulative IPC: 2.00580 (Simulation time: 0 hr 0 min 19 sec) 
Heartbeat CPU  0 instructions:   12000000 cycles:    5982907 heartbeat IPC: 2.00480 cumulative IPC: 2.00571 (Simulation time: 0 hr 0 min 21 sec) 
Heartbeat CPU  0 instructions:   13000002 cycles:    6485243 heartbeat IPC: 1.99070 cumulative IPC: 2.00455 (Simulation time: 0 hr 0 min 23 sec) 
Heartbeat CPU  0 instructions:   14000003 cycles:    6987461 heartbeat IPC: 1.99117 cumulative IPC: 2.00359 (Simulation time: 0 hr 0 min 25 sec) 
Heartbeat CPU  0 instructions:   15000002 cycles:    7489550 heartbeat IPC: 1.99168 cumulative IPC: 2.00279 (Simulation time: 0 hr 0 min 26 sec) 
Heartbeat CPU  0 instructions:   16000000 cycles:    7977006 heartbeat IPC: 2.05146 cumulative IPC: 2.00576 (Simulation time: 0 hr 0 min 28 sec) 
Heartbeat CPU  0 instructions:   17000001 cycles:    8479796 heartbeat IPC: 1.98890 cumulative IPC: 2.00477 (Simulation time: 0 hr 0 min 30 sec) 
Heartbeat CPU  0 instructions:   18000003 cycles:    8982831 heartbeat IPC: 1.98794 cumulative IPC: 2.00382 (Simulation time: 0 hr 0 min 32 sec) 
Heartbeat CPU  0 instructions:   19000003 cycles:    9484897 heartbeat IPC: 1.99177 cumulative IPC: 2.00319 (Simulation time: 0 hr 0 min 33 sec) 
Heartbeat CPU  0 instructions:   20000000 cycles:    9977004 heartbeat IPC: 2.03207 cumulative IPC: 2.00461 (Simulation time: 0 hr 0 min 35 sec) 
Heartbeat CPU  0 instructions:   21000003 cycles:   10474316 heartbeat IPC: 2.01082 cumulative IPC: 2.00490 (Simulation time: 0 hr 0 min 37 sec) 
Heartbeat CPU  0 instructions:   22000001 cycles:   10976877 heartbeat IPC: 1.98980 cumulative IPC: 2.00421 (Simulation time: 0 hr 0 min 39 sec) 
Heartbeat CPU  0 instructions:   23000002 cycles:   11479349 heartbeat IPC: 1.99016 cumulative IPC: 2.00360 (Simulation time: 0 hr 0 min 40 sec) 
Heartbeat CPU  0 instructions:   24000000 cycles:   11981264 heartbeat IPC: 1.99237 cumulative IPC: 2.00313 (Simulation time: 0 hr 0 min 42 sec) 
Heartbeat CPU  0 instructions:   25000002 cycles:   12468803 heartbeat IPC: 2.05112 cumulative IPC: 2.00500 (Simulation time: 0 hr 0 min 44 sec) 
Heartbeat CPU  0 instructions:   26000002 cycles:   12970573 heartbeat IPC: 1.99294 cumulative IPC: 2.00454 (Simulation time: 0 hr 0 min 46 sec) 
Heartbeat CPU  0 instructions:   27000001 cycles:   13472801 heartbeat IPC: 1.99113 cumulative IPC: 2.00404 (Simulation time: 0 hr 0 min 47 sec) 
Heartbeat CPU  0 instructions:   28000000 cycles:   13975316 heartbeat IPC: 1.98999 cumulative IPC: 2.00353 (Simulation time: 0 hr 0 min 49 sec) 
Heartbeat CPU  0 instructions:   29000003 cycles:   14470150 heartbeat IPC: 2.02089 cumulative IPC: 2.00413 (Simulation time: 0 hr 0 min 51 sec) 
Heartbeat CPU  0 instructions:   30000003 cycles:   14964731 heartbeat IPC: 2.02191 cumulative IPC: 2.00471 (Simulation time: 0 hr 0 min 53 sec) 
Heartbeat CPU  0 instructions:   31000001 cycles:   15466751 heartbeat IPC: 1.99195 cumulative IPC: 2.00430 (Simulation time: 0 hr 0 min 54 sec) 
Heartbeat CPU  0 instructions:   32000000 cycles:   15968971 heartbeat IPC: 1.99116 cumulative IPC: 2.00389 (Simulation time: 0 hr 0 min 56 sec) 
Heartbeat CPU  0 instructions:   33000000 cycles:   16471272 heartbeat IPC: 1.99084 cumulative IPC: 2.00349 (Simulation time: 0 hr 0 min 58 sec) 
Heartbeat CPU  0 instructions:   34000003 cycles:   16958929 heartbeat IPC: 2.05063 cumulative IPC: 2.00484 (Simulation time: 0 hr 1 min 0 sec) 
Heartbeat CPU  0 instructions:   35000003 cycles:   17460773 heartbeat IPC: 1.99265 cumulative IPC: 2.00449 (Simulation time: 0 hr 1 min 1 sec) 
Heartbeat CPU  0 instructions:   36000000 cycles:   17962650 heartbeat IPC: 1.99251 cumulative IPC: 2.00416 (Simulation time: 0 hr 1 min 3 sec) 
Heartbeat CPU  0 instructions:   37000001 cycles:   18465470 heartbeat IPC: 1.98879 cumulative IPC: 2.00374 (Simulation time: 0 hr 1 min 5 sec) 
Heartbeat CPU  0 instructions:   38000003 cycles:   18962919 heartbeat IPC: 2.01026 cumulative IPC: 2.00391 (Simulation time: 0 hr 1 min 7 sec) 
Heartbeat CPU  0 instructions:   39000001 cycles:   19455461 heartbeat IPC: 2.03028 cumulative IPC: 2.00458 (Simulation time: 0 hr 1 min 8 sec) 
Heartbeat CPU  0 instructions:   40000000 cycles:   19957587 heartbeat IPC: 1.99153 cumulative IPC: 2.00425 (Simulation time: 0 hr 1 min 10 sec) 
Heartbeat CPU  0 instructions:   41000002 cycles:   20459845 heartbeat IPC: 1.99101 cumulative IPC: 2.00393 (Simulation time: 0 hr 1 min 12 sec) 
Heartbeat CPU  0 instructions:   42000000 cycles:   20962208 heartbeat IPC: 1.99059 cumulative IPC: 2.00361 (Simulation time: 0 hr 1 min 14 sec) 
Heartbeat CPU  0 instructions:   43000000 cycles:   21450282 heartbeat IPC: 2.04887 cumulative IPC: 2.00464 (Simulation time: 0 hr 1 min 15 sec) 
Heartbeat CPU  0 instructions:   44000000 cycles:   21952414 heartbeat IPC: 1.99151 cumulative IPC: 2.00434 (Simulation time: 0 hr 1 min 17 sec) 
Heartbeat CPU  0 instructions:   45000002 cycles:   22454998 heartbeat IPC: 1.98972 cumulative IPC: 2.00401 (Simulation time: 0 hr 1 min 19 sec) 
Heartbeat CPU  0 instructions:   46000003 cycles:   22956758 heartbeat IPC: 1.99299 cumulative IPC: 2.00377 (Simulation time: 0 hr 1 min 21 sec) 
Heartbeat CPU  0 instructions:   47000000 cycles:   23455716 heartbeat IPC: 2.00417 cumulative IPC: 2.00378 (Simulation time: 0 hr 1 min 22 sec) 
Heartbeat CPU  0 instructions:   48000000 cycles:   23946621 heartbeat IPC: 2.03705 cumulative IPC: 2.00446 (Simulation time: 0 hr 1 min 24 sec) 
Heartbeat CPU  0 instructions:   49000002 cycles:   24449279 heartbeat IPC: 1.98943 cumulative IPC: 2.00415 (Simulation time: 0 hr 1 min 26 sec) 
Heartbeat CPU  0 instructions:   50000003 cycles:   24951566 heartbeat IPC: 1.99090 cumulative IPC: 2.00388 (Simulation time: 0 hr 1 min 28 sec) 
Heartbeat CPU  0 instructions:   51000001 cycles:   25453520 heartbeat IPC: 1.99221 cumulative IPC: 2.00365 (Simulation time: 0 hr 1 min 30 sec) 
Heartbeat CPU  0 instructions:   52000000 cycles:   25943558 heartbeat IPC: 2.04066 cumulative IPC: 2.00435 (Simulation time: 0 hr 1 min 31 sec) 
Heartbeat CPU  0 instructions:   53000003 cycles:   26443295 heartbeat IPC: 2.00106 cumulative IPC: 2.00429 (Simulation time: 0 hr 1 min 33 sec) 
Heartbeat CPU  0 instructions:   54000003 cycles:   26954725 heartbeat IPC: 1.95530 cumulative IPC: 2.00336 (Simulation time: 0 hr 1 min 35 sec) 
Heartbeat CPU  0 instructions:   55000001 cycles:   27473846 heartbeat IPC: 1.92633 cumulative IPC: 2.00190 (Simulation time: 0 hr 1 min 36 sec) 
Heartbeat CPU  0 instructions:   56000000 cycles:   27986356 heartbeat IPC: 1.95118 cumulative IPC: 2.00098 (Simulation time: 0 hr 1 min 38 sec) 
Heartbeat CPU  0 instructions:   57000000 cycles:   28498399 heartbeat IPC: 1.95296 cumulative IPC: 2.00011 (Simulation time: 0 hr 1 min 40 sec) 
Heartbeat CPU  0 instructions:   58000002 cycles:   29012431 heartbeat IPC: 1.94541 cumulative IPC: 1.99914 (Simulation time: 0 hr 1 min 41 sec) 
Heartbeat CPU  0 instructions:   59000003 cycles:   29524091 heartbeat IPC: 1.95442 cumulative IPC: 1.99837 (Simulation time: 0 hr 1 min 43 sec) 
Heartbeat CPU  0 instructions:   60000000 cycles:   30035022 heartbeat IPC: 1.95721 cumulative IPC: 1.99767 (Simulation time: 0 hr 1 min 45 sec) 
Heartbeat CPU  0 instructions:   61000001 cycles:   30547782 heartbeat IPC: 1.95023 cumulative IPC: 1.99687 (Simulation time: 0 hr 1 min 46 sec) 
Heartbeat CPU  0 instructions:   62000003 cycles:   31060371 heartbeat IPC: 1.95088 cumulative IPC: 1.99611 (Simulation time: 0 hr 1 min 48 sec) 
Heartbeat CPU  0 instructions:   63000001 cycles:   31572269 heartbeat IPC: 1.95351 cumulative IPC: 1.99542 (Simulation time: 0 hr 1 min 50 sec) 
Heartbeat CPU  0 instructions:   64000000 cycles:   32085656 heartbeat IPC: 1.94785 cumulative IPC: 1.99466 (Simulation time: 0 hr 1 min 51 sec) 
Heartbeat CPU  0 instructions:   65000000 cycles:   32599011 heartbeat IPC: 1.94797 cumulative IPC: 1.99393 (Simulation time: 0 hr 1 min 53 sec) 
Heartbeat CPU  0 instructions:   66000002 cycles:   33110953 heartbeat IPC: 1.95335 cumulative IPC: 1.99330 (Simulation time: 0 hr 1 min 54 sec) 
Heartbeat CPU  0 instructions:   67000002 cycles:   33624188 heartbeat IPC: 1.94843 cumulative IPC: 1.99261 (Simulation time: 0 hr 1 min 56 sec) 
Heartbeat CPU  0 instructions:   68000000 cycles:   34137562 heartbeat IPC: 1.94789 cumulative IPC: 1.99194 (Simulation time: 0 hr 1 min 58 sec) 
Heartbeat CPU  0 instructions:   69000001 cycles:   34649230 heartbeat IPC: 1.95439 cumulative IPC: 1.99139 (Simulation time: 0 hr 1 min 59 sec) 
Heartbeat CPU  0 instructions:   70000003 cycles:   35162154 heartbeat IPC: 1.94961 cumulative IPC: 1.99078 (Simulation time: 0 hr 2 min 1 sec) 
Heartbeat CPU  0 instructions:   71000002 cycles:   35675044 heartbeat IPC: 1.94973 cumulative IPC: 1.99019 (Simulation time: 0 hr 2 min 3 sec) 
Heartbeat CPU  0 instructions:   72000000 cycles:   36186320 heartbeat IPC: 1.95589 cumulative IPC: 1.98970 (Simulation time: 0 hr 2 min 4 sec) 
Heartbeat CPU  0 instructions:   73000003 cycles:   36698539 heartbeat IPC: 1.95230 cumulative IPC: 1.98918 (Simulation time: 0 hr 2 min 6 sec) 
Heartbeat CPU  0 instructions:   74000001 cycles:   37211037 heartbeat IPC: 1.95122 cumulative IPC: 1.98866 (Simulation time: 0 hr 2 min 8 sec) 
Heartbeat CPU  0 instructions:   75000001 cycles:   37723285 heartbeat IPC: 1.95218 cumulative IPC: 1.98816 (Simulation time: 0 hr 2 min 9 sec) 
Heartbeat CPU  0 instructions:   76000000 cycles:   38236277 heartbeat IPC: 1.94935 cumulative IPC: 1.98764 (Simulation time: 0 hr 2 min 11 sec) 
Heartbeat CPU  0 instructions:   77000001 cycles:   38749933 heartbeat IPC: 1.94683 cumulative IPC: 1.98710 (Simulation time: 0 hr 2 min 12 sec) 
Heartbeat CPU  0 instructions:   78000003 cycles:   39262000 heartbeat IPC: 1.95287 cumulative IPC: 1.98665 (Simulation time: 0 hr 2 min 14 sec) 
Heartbeat CPU  0 instructions:   79000000 cycles:   39774791 heartbeat IPC: 1.95011 cumulative IPC: 1.98618 (Simulation time: 0 hr 2 min 16 sec) 
Heartbeat CPU  0 instructions:   80000000 cycles:   40288439 heartbeat IPC: 1.94686 cumulative IPC: 1.98568 (Simulation time: 0 hr 2 min 17 sec) 
Heartbeat CPU  0 instructions:   81000000 cycles:   40800827 heartbeat IPC: 1.95165 cumulative IPC: 1.98525 (Simulation time: 0 hr 2 min 19 sec) 
Heartbeat CPU  0 instructions:   82000001 cycles:   41313415 heartbeat IPC: 1.95089 cumulative IPC: 1.98483 (Simulation time: 0 hr 2 min 21 sec) 
Heartbeat CPU  0 instructions:   83000001 cycles:   41827241 heartbeat IPC: 1.94618 cumulative IPC: 1.98435 (Simulation time: 0 hr 2 min 22 sec) 
Heartbeat CPU  0 instructions:   84000000 cycles:   42339225 heartbeat IPC: 1.95318 cumulative IPC: 1.98398 (Simulation time: 0 hr 2 min 24 sec) 
Heartbeat CPU  0 instructions:   85000001 cycles:   42851355 heartbeat IPC: 1.95263 cumulative IPC: 1.98360 (Simulation time: 0 hr 2 min 26 sec) 
Heartbeat CPU  0 instructions:   86000002 cycles:   43364814 heartbeat IPC: 1.94758 cumulative IPC: 1.98317 (Simulation time: 0 hr 2 min 27 sec) 
Heartbeat CPU  0 instructions:   87000003 cycles:   43876665 heartbeat IPC: 1.95370 cumulative IPC: 1.98283 (Simulation time: 0 hr 2 min 29 sec) 
Heartbeat CPU  0 instructions:   88000000 cycles:   44388935 heartbeat IPC: 1.95209 cumulative IPC: 1.98248 (Simulation time: 0 hr 2 min 30 sec) 
Heartbeat CPU  0 instructions:   89000002 cycles:   44902829 heartbeat IPC: 1.94593 cumulative IPC: 1.98206 (Simulation time: 0 hr 2 min 32 sec) 
Heartbeat CPU  0 instructions:   90000003 cycles:   45415106 heartbeat IPC: 1.95207 cumulative IPC: 1.98172 (Simulation time: 0 hr 2 min 34 sec) 
Heartbeat CPU  0 instructions:   91000002 cycles:   45926437 heartbeat IPC: 1.95568 cumulative IPC: 1.98143 (Simulation time: 0 hr 2 min 35 sec) 
Heartbeat CPU  0 instructions:   92000000 cycles:   46439663 heartbeat IPC: 1.94846 cumulative IPC: 1.98107 (Simulation time: 0 hr 2 min 37 sec) 
Heartbeat CPU  0 instructions:   93000001 cycles:   46951575 heartbeat IPC: 1.95346 cumulative IPC: 1.98076 (Simulation time: 0 hr 2 min 39 sec) 
Heartbeat CPU  0 instructions:   94000003 cycles:   47463402 heartbeat IPC: 1.95379 cumulative IPC: 1.98047 (Simulation time: 0 hr 2 min 40 sec) 
Heartbeat CPU  0 instructions:   95000003 cycles:   47977378 heartbeat IPC: 1.94562 cumulative IPC: 1.98010 (Simulation time: 0 hr 2 min 42 sec) 
Heartbeat CPU  0 instructions:   96000000 cycles:   48489856 heartbeat IPC: 1.95130 cumulative IPC: 1.97980 (Simulation time: 0 hr 2 min 44 sec) 
Heartbeat CPU  0 instructions:   97000002 cycles:   49001556 heartbeat IPC: 1.95427 cumulative IPC: 1.97953 (Simulation time: 0 hr 2 min 45 sec) 
Heartbeat CPU  0 instructions:   98000000 cycles:   49514773 heartbeat IPC: 1.94849 cumulative IPC: 1.97921 (Simulation time: 0 hr 2 min 47 sec) 
Heartbeat CPU  0 instructions:   99000000 cycles:   50026918 heartbeat IPC: 1.95257 cumulative IPC: 1.97893 (Simulation time: 0 hr 2 min 49 sec) 
Heartbeat CPU  0 instructions:  100000000 cycles:   50563461 heartbeat IPC: 1.86378 cumulative IPC: 1.97771 (Simulation time: 0 hr 2 min 50 sec) 

Warmup complete CPU  0 instructions:  100000001 cycles:   50563482 (Simulation time: 0 hr 2 min 50 sec) 

Heartbeat CPU  0 instructions:  101000003 cycles:   52020394 heartbeat IPC: 0.68638 cumulative IPC: 0.68638 (Simulation time: 0 hr 2 min 53 sec) 
Heartbeat CPU  0 instructions:  102000000 cycles:   54817751 heartbeat IPC: 0.35748 cumulative IPC: 0.47012 (Simulation time: 0 hr 2 min 56 sec) 
Heartbeat CPU  0 instructions:  103000002 cycles:   56886257 heartbeat IPC: 0.48344 cumulative IPC: 0.47448 (Simulation time: 0 hr 2 min 59 sec) 
Heartbeat CPU  0 instructions:  104000000 cycles:   57636351 heartbeat IPC: 1.33316 cumulative IPC: 0.56554 (Simulation time: 0 hr 3 min 1 sec) 
Heartbeat CPU  0 instructions:  105000002 cycles:   58391079 heartbeat IPC: 1.32498 cumulative IPC: 0.63877 (Simulation time: 0 hr 3 min 3 sec) 
Heartbeat CPU  0 instructions:  106000003 cycles:   59150583 heartbeat IPC: 1.31665 cumulative IPC: 0.69872 (Simulation time: 0 hr 3 min 5 sec) 
Heartbeat CPU  0 instructions:  107000000 cycles:   59909842 heartbeat IPC: 1.31707 cumulative IPC: 0.74895 (Simulation time: 0 hr 3 min 8 sec) 
Heartbeat CPU  0 instructions:  108000000 cycles:   60660872 heartbeat IPC: 1.33150 cumulative IPC: 0.79228 (Simulation time: 0 hr 3 min 10 sec) 
Heartbeat CPU  0 instructions:  109000001 cycles:   61412881 heartbeat IPC: 1.32977 cumulative IPC: 0.82954 (Simulation time: 0 hr 3 min 12 sec) 
Heartbeat CPU  0 instructions:  110000001 cycles:   62185569 heartbeat IPC: 1.29418 cumulative IPC: 0.86043 (Simulation time: 0 hr 3 min 14 sec) 
Heartbeat CPU  0 instructions:  111000001 cycles:   62967066 heartbeat IPC: 1.27960 cumulative IPC: 0.88684 (Simulation time: 0 hr 3 min 16 sec) 
Heartbeat CPU  0 instructions:  112000000 cycles:   63746839 heartbeat IPC: 1.28242 cumulative IPC: 0.91024 (Simulation time: 0 hr 3 min 18 sec) 
Heartbeat CPU  0 instructions:  113000003 cycles:   64531648 heartbeat IPC: 1.27420 cumulative IPC: 0.93069 (Simulation time: 0 hr 3 min 20 sec) 
Heartbeat CPU  0 instructions:  114000001 cycles:   65313462 heartbeat IPC: 1.27907 cumulative IPC: 0.94915 (Simulation time: 0 hr 3 min 22 sec) 
Heartbeat CPU  0 instructions:  115000003 cycles:   66094789 heartbeat IPC: 1.27988 cumulative IPC: 0.96579 (Simulation time: 0 hr 3 min 25 sec) 
Heartbeat CPU  0 instructions:  116000000 cycles:   66890758 heartbeat IPC: 1.25633 cumulative IPC: 0.97996 (Simulation time: 0 hr 3 min 27 sec) 
Heartbeat CPU  0 instructions:  117000000 cycles:   67707447 heartbeat IPC: 1.22446 cumulative IPC: 0.99160 (Simulation time: 0 hr 3 min 29 sec) 
Heartbeat CPU  0 instructions:  118000003 cycles:   68523436 heartbeat IPC: 1.22551 cumulative IPC: 1.00223 (Simulation time: 0 hr 3 min 31 sec) 
Heartbeat CPU  0 instructions:  119000000 cycles:   69346956 heartbeat IPC: 1.21430 cumulative IPC: 1.01153 (Simulation time: 0 hr 3 min 33 sec) 
Heartbeat CPU  0 instructions:  120000000 cycles:   70168588 heartbeat IPC: 1.21709 cumulative IPC: 1.02014 (Simulation time: 0 hr 3 min 35 sec) 
Heartbeat CPU  0 instructions:  121000001 cycles:   70991755 heartbeat IPC: 1.21482 cumulative IPC: 1.02799 (Simulation time: 0 hr 3 min 37 sec) 
Heartbeat CPU  0 instructions:  122000002 cycles:   71814066 heartbeat IPC: 1.21609 cumulative IPC: 1.03527 (Simulation time: 0 hr 3 min 39 sec) 
Heartbeat CPU  0 instructions:  123000000 cycles:   72637376 heartbeat IPC: 1.21461 cumulative IPC: 1.04195 (Simulation time: 0 hr 3 min 41 sec) 
Heartbeat CPU  0 instructions:  124000000 cycles:   73459079 heartbeat IPC: 1.21698 cumulative IPC: 1.04824 (Simulation time: 0 hr 3 min 43 sec) 
Heartbeat CPU  0 instructions:  125000002 cycles:   74279907 heartbeat IPC: 1.21828 cumulative IPC: 1.05412 (Simulation time: 0 hr 3 min 45 sec) 
Heartbeat CPU  0 instructions:  126000001 cycles:   75102676 heartbeat IPC: 1.21541 cumulative IPC: 1.05953 (Simulation time: 0 hr 3 min 47 sec) 
Heartbeat CPU  0 instructions:  127000003 cycles:   75925611 heartbeat IPC: 1.21517 cumulative IPC: 1.06458 (Simulation time: 0 hr 3 min 49 sec) 
Heartbeat CPU  0 instructions:  128000000 cycles:   76747472 heartbeat IPC: 1.21675 cumulative IPC: 1.06936 (Simulation time: 0 hr 3 min 51 sec) 
Heartbeat CPU  0 instructions:  129000001 cycles:   77567525 heartbeat IPC: 1.21943 cumulative IPC: 1.07391 (Simulation time: 0 hr 3 min 53 sec) 
Heartbeat CPU  0 instructions:  130000003 cycles:   78389250 heartbeat IPC: 1.21695 cumulative IPC: 1.07814 (Simulation time: 0 hr 3 min 55 sec) 
Heartbeat CPU  0 instructions:  131000000 cycles:   79212168 heartbeat IPC: 1.21518 cumulative IPC: 1.08207 (Simulation time: 0 hr 3 min 57 sec) 
Heartbeat CPU  0 instructions:  132000000 cycles:   80032292 heartbeat IPC: 1.21933 cumulative IPC: 1.08589 (Simulation time: 0 hr 3 min 59 sec) 
Heartbeat CPU  0 instructions:  133000000 cycles:   80856159 heartbeat IPC: 1.21379 cumulative IPC: 1.08937 (Simulation time: 0 hr 4 min 1 sec) 
Heartbeat CPU  0 instructions:  134000003 cycles:   81678840 heartbeat IPC: 1.21554 cumulative IPC: 1.09271 (Simulation time: 0 hr 4 min 3 sec) 
Heartbeat CPU  0 instructions:  135000003 cycles:   82502461 heartbeat IPC: 1.21415 cumulative IPC: 1.09584 (Simulation time: 0 hr 4 min 5 sec) 
Heartbeat CPU  0 instructions:  136000000 cycles:   83324384 heartbeat IPC: 1.21666 cumulative IPC: 1.09887 (Simulation time: 0 hr 4 min 7 sec) 
Heartbeat CPU  0 instructions:  137000003 cycles:   84148564 heartbeat IPC: 1.21333 cumulative IPC: 1.10168 (Simulation time: 0 hr 4 min 9 sec) 
Heartbeat CPU  0 instructions:  138000002 cycles:   84971257 heartbeat IPC: 1.21552 cumulative IPC: 1.10440 (Simulation time: 0 hr 4 min 11 sec) 
Heartbeat CPU  0 instructions:  139000002 cycles:   85793720 heartbeat IPC: 1.21586 cumulative IPC: 1.10700 (Simulation time: 0 hr 4 min 13 sec) 
Heartbeat CPU  0 instructions:  140000000 cycles:   86614637 heartbeat IPC: 1.21815 cumulative IPC: 1.10953 (Simulation time: 0 hr 4 min 15 sec) 
Heartbeat CPU  0 instructions:  141000000 cycles:   87437019 heartbeat IPC: 1.21598 cumulative IPC: 1.11191 (Simulation time: 0 hr 4 min 18 sec) 
Heartbeat CPU  0 instructions:  142000000 cycles:   88259376 heartbeat IPC: 1.21602 cumulative IPC: 1.11418 (Simulation time: 0 hr 4 min 20 sec) 
Heartbeat CPU  0 instructions:  143000003 cycles:   89082969 heartbeat IPC: 1.21420 cumulative IPC: 1.11632 (Simulation time: 0 hr 4 min 22 sec) 
Heartbeat CPU  0 instructions:  144000000 cycles:   89904143 heartbeat IPC: 1.21777 cumulative IPC: 1.11844 (Simulation time: 0 hr 4 min 24 sec) 
Heartbeat CPU  0 instructions:  145000001 cycles:   90725680 heartbeat IPC: 1.21723 cumulative IPC: 1.12046 (Simulation time: 0 hr 4 min 26 sec) 
Heartbeat CPU  0 instructions:  146000003 cycles:   91547775 heartbeat IPC: 1.21641 cumulative IPC: 1.12238 (Simulation time: 0 hr 4 min 28 sec) 
Heartbeat CPU  0 instructions:  147000000 cycles:   92370743 heartbeat IPC: 1.21511 cumulative IPC: 1.12421 (Simulation time: 0 hr 4 min 30 sec) 
Heartbeat CPU  0 instructions:  148000000 cycles:   93194006 heartbeat IPC: 1.21468 cumulative IPC: 1.12595 (Simulation time: 0 hr 4 min 32 sec) 
Heartbeat CPU  0 instructions:  149000003 cycles:   94015184 heartbeat IPC: 1.21777 cumulative IPC: 1.12769 (Simulation time: 0 hr 4 min 34 sec) 
Heartbeat CPU  0 instructions:  150000003 cycles:   94839730 heartbeat IPC: 1.21279 cumulative IPC: 1.12927 (Simulation time: 0 hr 4 min 36 sec) 
Heartbeat CPU  0 instructions:  151000000 cycles:   95662656 heartbeat IPC: 1.21517 cumulative IPC: 1.13084 (Simulation time: 0 hr 4 min 38 sec) 
Heartbeat CPU  0 instructions:  152000000 cycles:   96483718 heartbeat IPC: 1.21793 cumulative IPC: 1.13240 (Simulation time: 0 hr 4 min 40 sec) 
Heartbeat CPU  0 instructions:  153000002 cycles:   97307419 heartbeat IPC: 1.21404 cumulative IPC: 1.13384 (Simulation time: 0 hr 4 min 42 sec) 
Heartbeat CPU  0 instructions:  154000002 cycles:   98128084 heartbeat IPC: 1.21852 cumulative IPC: 1.13530 (Simulation time: 0 hr 4 min 44 sec) 
Heartbeat CPU  0 instructions:  155000001 cycles:   98950481 heartbeat IPC: 1.21596 cumulative IPC: 1.13667 (Simulation time: 0 hr 4 min 46 sec) 
Heartbeat CPU  0 instructions:  156000000 cycles:   99772172 heartbeat IPC: 1.21700 cumulative IPC: 1.13801 (Simulation time: 0 hr 4 min 48 sec) 
Heartbeat CPU  0 instructions:  157000000 cycles:  100594612 heartbeat IPC: 1.21589 cumulative IPC: 1.13929 (Simulation time: 0 hr 4 min 50 sec) 
Heartbeat CPU  0 instructions:  158000001 cycles:  101415626 heartbeat IPC: 1.21801 cumulative IPC: 1.14056 (Simulation time: 0 hr 4 min 52 sec) 
Heartbeat CPU  0 instructions:  159000003 cycles:  102236735 heartbeat IPC: 1.21787 cumulative IPC: 1.14179 (Simulation time: 0 hr 4 min 54 sec) 
Heartbeat CPU  0 instructions:  160000000 cycles:  103061820 heartbeat IPC: 1.21199 cumulative IPC: 1.14289 (Simulation time: 0 hr 4 min 56 sec) 
Heartbeat CPU  0 instructions:  161000001 cycles:  103884274 heartbeat IPC: 1.21587 cumulative IPC: 1.14402 (Simulation time: 0 hr 4 min 58 sec) 
Heartbeat CPU  0 instructions:  162000000 cycles:  104707355 heartbeat IPC: 1.21495 cumulative IPC: 1.14510 (Simulation time: 0 hr 5 min 0 sec) 
Heartbeat CPU  0 instructions:  163000003 cycles:  105530443 heartbeat IPC: 1.21494 cumulative IPC: 1.14614 (Simulation time: 0 hr 5 min 2 sec) 
Heartbeat CPU  0 instructions:  164000000 cycles:  106352317 heartbeat IPC: 1.21673 cumulative IPC: 1.14718 (Simulation time: 0 hr 5 min 4 sec) 
Heartbeat CPU  0 instructions:  165000000 cycles:  107173990 heartbeat IPC: 1.21703 cumulative IPC: 1.14820 (Simulation time: 0 hr 5 min 6 sec) 
Heartbeat CPU  0 instructions:  166000000 cycles:  107996572 heartbeat IPC: 1.21568 cumulative IPC: 1.14916 (Simulation time: 0 hr 5 min 8 sec) 
Heartbeat CPU  0 instructions:  167000003 cycles:  108818635 heartbeat IPC: 1.21646 cumulative IPC: 1.15011 (Simulation time: 0 hr 5 min 10 sec) 
Heartbeat CPU  0 instructions:  168000000 cycles:  109641540 heartbeat IPC: 1.21520 cumulative IPC: 1.15102 (Simulation time: 0 hr 5 min 12 sec) 
Heartbeat CPU  0 instructions:  169000003 cycles:  110466306 heartbeat IPC: 1.21247 cumulative IPC: 1.15187 (Simulation time: 0 hr 5 min 14 sec) 
Heartbeat CPU  0 instructions:  170000001 cycles:  111289715 heartbeat IPC: 1.21446 cumulative IPC: 1.15271 (Simulation time: 0 hr 5 min 16 sec) 
Heartbeat CPU  0 instructions:  171000002 cycles:  112112475 heartbeat IPC: 1.21542 cumulative IPC: 1.15355 (Simulation time: 0 hr 5 min 18 sec) 
Heartbeat CPU  0 instructions:  172000000 cycles:  112934219 heartbeat IPC: 1.21692 cumulative IPC: 1.15439 (Simulation time: 0 hr 5 min 20 sec) 
Heartbeat CPU  0 instructions:  173000002 cycles:  113756433 heartbeat IPC: 1.21623 cumulative IPC: 1.15519 (Simulation time: 0 hr 5 min 22 sec) 
Heartbeat CPU  0 instructions:  174000000 cycles:  114578862 heartbeat IPC: 1.21591 cumulative IPC: 1.15597 (Simulation time: 0 hr 5 min 25 sec) 
Heartbeat CPU  0 instructions:  175000001 cycles:  115401884 heartbeat IPC: 1.21504 cumulative IPC: 1.15672 (Simulation time: 0 hr 5 min 27 sec) 
Heartbeat CPU  0 instructions:  176000000 cycles:  116225494 heartbeat IPC: 1.21417 cumulative IPC: 1.15744 (Simulation time: 0 hr 5 min 29 sec) 
Heartbeat CPU  0 instructions:  177000000 cycles:  117047663 heartbeat IPC: 1.21630 cumulative IPC: 1.15817 (Simulation time: 0 hr 5 min 31 sec) 
Heartbeat CPU  0 instructions:  178000003 cycles:  117871084 heartbeat IPC: 1.21445 cumulative IPC: 1.15886 (Simulation time: 0 hr 5 min 33 sec) 
Heartbeat CPU  0 instructions:  179000000 cycles:  118692862 heartbeat IPC: 1.21687 cumulative IPC: 1.15956 (Simulation time: 0 hr 5 min 35 sec) 
Heartbeat CPU  0 instructions:  180000000 cycles:  119513098 heartbeat IPC: 1.21916 cumulative IPC: 1.16027 (Simulation time: 0 hr 5 min 37 sec) 
Heartbeat CPU  0 instructions:  181000003 cycles:  120335105 heartbeat IPC: 1.21654 cumulative IPC: 1.16093 (Simulation time: 0 hr 5 min 39 sec) 
Heartbeat CPU  0 instructions:  182000003 cycles:  121156616 heartbeat IPC: 1.21727 cumulative IPC: 1.16159 (Simulation time: 0 hr 5 min 41 sec) 
Heartbeat CPU  0 instructions:  183000003 cycles:  121977671 heartbeat IPC: 1.21795 cumulative IPC: 1.16223 (Simulation time: 0 hr 5 min 43 sec) 
Heartbeat CPU  0 instructions:  184000000 cycles:  122801818 heartbeat IPC: 1.21337 cumulative IPC: 1.16282 (Simulation time: 0 hr 5 min 45 sec) 
Heartbeat CPU  0 instructions:  185000002 cycles:  123624841 heartbeat IPC: 1.21504 cumulative IPC: 1.16341 (Simulation time: 0 hr 5 min 47 sec) 
Heartbeat CPU  0 instructions:  186000002 cycles:  124445290 heartbeat IPC: 1.21884 cumulative IPC: 1.16402 (Simulation time: 0 hr 5 min 49 sec) 
Heartbeat CPU  0 instructions:  187000001 cycles:  125323167 heartbeat IPC: 1.13911 cumulative IPC: 1.16373 (Simulation time: 0 hr 5 min 51 sec) 
Heartbeat CPU  0 instructions:  188000000 cycles:  126232728 heartbeat IPC: 1.09943 cumulative IPC: 1.16296 (Simulation time: 0 hr 5 min 53 sec) 
Heartbeat CPU  0 instructions:  189000000 cycles:  127140080 heartbeat IPC: 1.10211 cumulative IPC: 1.16223 (Simulation time: 0 hr 5 min 55 sec) 
Heartbeat CPU  0 instructions:  190000000 cycles:  128054735 heartbeat IPC: 1.09331 cumulative IPC: 1.16142 (Simulation time: 0 hr 5 min 57 sec) 
Heartbeat CPU  0 instructions:  191000003 cycles:  128960704 heartbeat IPC: 1.10379 cumulative IPC: 1.16076 (Simulation time: 0 hr 5 min 59 sec) 
Heartbeat CPU  0 instructions:  192000000 cycles:  129872943 heartbeat IPC: 1.09620 cumulative IPC: 1.16001 (Simulation time: 0 hr 6 min 1 sec) 
Heartbeat CPU  0 instructions:  193000003 cycles:  130779284 heartbeat IPC: 1.10334 cumulative IPC: 1.15937 (Simulation time: 0 hr 6 min 3 sec) 
Heartbeat CPU  0 instructions:  194000001 cycles:  131690287 heartbeat IPC: 1.09769 cumulative IPC: 1.15868 (Simulation time: 0 hr 6 min 5 sec) 
Heartbeat CPU  0 instructions:  195000000 cycles:  132598871 heartbeat IPC: 1.10061 cumulative IPC: 1.15804 (Simulation time: 0 hr 6 min 7 sec) 
Heartbeat CPU  0 instructions:  196000000 cycles:  133489503 heartbeat IPC: 1.12280 cumulative IPC: 1.15766 (Simulation time: 0 hr 6 min 9 sec) 
Heartbeat CPU  0 instructions:  197000000 cycles:  134375496 heartbeat IPC: 1.12868 cumulative IPC: 1.15735 (Simulation time: 0 hr 6 min 11 sec) 
Heartbeat CPU  0 instructions:  198000002 cycles:  135268945 heartbeat IPC: 1.11926 cumulative IPC: 1.15695 (Simulation time: 0 hr 6 min 13 sec) 
Heartbeat CPU  0 instructions:  199000001 cycles:  136158259 heartbeat IPC: 1.12446 cumulative IPC: 1.15661 (Simulation time: 0 hr 6 min 15 sec) 
Heartbeat CPU  0 instructions:  200000000 cycles:  137047891 heartbeat IPC: 1.12406 cumulative IPC: 1.15628 (Simulation time: 0 hr 6 min 17 sec) 
Heartbeat CPU  0 instructions:  201000001 cycles:  137934208 heartbeat IPC: 1.12827 cumulative IPC: 1.15599 (Simulation time: 0 hr 6 min 19 sec) 
Heartbeat CPU  0 instructions:  202000002 cycles:  138827762 heartbeat IPC: 1.11913 cumulative IPC: 1.15562 (Simulation time: 0 hr 6 min 21 sec) 
Heartbeat CPU  0 instructions:  203000000 cycles:  139712603 heartbeat IPC: 1.13014 cumulative IPC: 1.15537 (Simulation time: 0 hr 6 min 23 sec) 
Heartbeat CPU  0 instructions:  204000000 cycles:  140604314 heartbeat IPC: 1.12144 cumulative IPC: 1.15503 (Simulation time: 0 hr 6 min 25 sec) 
Heartbeat CPU  0 instructions:  205000003 cycles:  141493912 heartbeat IPC: 1.12411 cumulative IPC: 1.15473 (Simulation time: 0 hr 6 min 27 sec) 
Heartbeat CPU  0 instructions:  206000000 cycles:  142382074 heartbeat IPC: 1.12592 cumulative IPC: 1.15445 (Simulation time: 0 hr 6 min 29 sec) 
Heartbeat CPU  0 instructions:  207000001 cycles:  143269002 heartbeat IPC: 1.12749 cumulative IPC: 1.15419 (Simulation time: 0 hr 6 min 32 sec) 
Heartbeat CPU  0 instructions:  208000000 cycles:  144158845 heartbeat IPC: 1.12379 cumulative IPC: 1.15390 (Simulation time: 0 hr 6 min 34 sec) 
Heartbeat CPU  0 instructions:  209000001 cycles:  145049404 heartbeat IPC: 1.12289 cumulative IPC: 1.15361 (Simulation time: 0 hr 6 min 36 sec) 
Heartbeat CPU  0 instructions:  210000003 cycles:  145943083 heartbeat IPC: 1.11897 cumulative IPC: 1.15329 (Simulation time: 0 hr 6 min 38 sec) 
Heartbeat CPU  0 instructions:  211000001 cycles:  146827589 heartbeat IPC: 1.13057 cumulative IPC: 1.15308 (Simulation time: 0 hr 6 min 40 sec) 
Heartbeat CPU  0 instructions:  212000000 cycles:  147717859 heartbeat IPC: 1.12325 cumulative IPC: 1.15280 (Simulation time: 0 hr 6 min 42 sec) 
Heartbeat CPU  0 instructions:  213000001 cycles:  148730473 heartbeat IPC: 0.98754 cumulative IPC: 1.15110 (Simulation time: 0 hr 6 min 44 sec) 
Heartbeat CPU  0 instructions:  214000002 cycles:  149835114 heartbeat IPC: 0.90527 cumulative IPC: 1.14836 (Simulation time: 0 hr 6 min 46 sec) 
Heartbeat CPU  0 instructions:  215000002 cycles:  150970702 heartbeat IPC: 0.88060 cumulative IPC: 1.14534 (Simulation time: 0 hr 6 min 49 sec) 
Heartbeat CPU  0 instructions:  216000000 cycles:  152131432 heartbeat IPC: 0.86153 cumulative IPC: 1.14209 (Simulation time: 0 hr 6 min 51 sec) 
Heartbeat CPU  0 instructions:  217000002 cycles:  153256792 heartbeat IPC: 0.88861 cumulative IPC: 1.13931 (Simulation time: 0 hr 6 min 54 sec) 
Heartbeat CPU  0 instructions:  218000003 cycles:  154357863 heartbeat IPC: 0.90821 cumulative IPC: 1.13686 (Simulation time: 0 hr 6 min 56 sec) 
Heartbeat CPU  0 instructions:  219000000 cycles:  155487704 heartbeat IPC: 0.88508 cumulative IPC: 1.13415 (Simulation time: 0 hr 6 min 59 sec) 
Heartbeat CPU  0 instructions:  220000000 cycles:  156633334 heartbeat IPC: 0.87288 cumulative IPC: 1.13133 (Simulation time: 0 hr 7 min 1 sec) 
Heartbeat CPU  0 instructions:  221000000 cycles:  157787291 heartbeat IPC: 0.86658 cumulative IPC: 1.12848 (Simulation time: 0 hr 7 min 4 sec) 
Heartbeat CPU  0 instructions:  222000001 cycles:  158956819 heartbeat IPC: 0.85505 cumulative IPC: 1.12553 (Simulation time: 0 hr 7 min 6 sec) 
Heartbeat CPU  0 instructions:  223000000 cycles:  160087275 heartbeat IPC: 0.88460 cumulative IPC: 1.12304 (Simulation time: 0 hr 7 min 9 sec) 
Heartbeat CPU  0 instructions:  224000000 cycles:  161214034 heartbeat IPC: 0.88750 cumulative IPC: 1.12065 (Simulation time: 0 hr 7 min 11 sec) 
Heartbeat CPU  0 instructions:  225000002 cycles:  162360699 heartbeat IPC: 0.87210 cumulative IPC: 1.11810 (Simulation time: 0 hr 7 min 14 sec) 
Heartbeat CPU  0 instructions:  226000003 cycles:  163497538 heartbeat IPC: 0.87963 cumulative IPC: 1.11570 (Simulation time: 0 hr 7 min 16 sec) 
Heartbeat CPU  0 instructions:  227000002 cycles:  164629973 heartbeat IPC: 0.88305 cumulative IPC: 1.11339 (Simulation time: 0 hr 7 min 18 sec) 
Heartbeat CPU  0 instructions:  228000000 cycles:  165763294 heartbeat IPC: 0.88236 cumulative IPC: 1.11111 (Simulation time: 0 hr 7 min 21 sec) 
Heartbeat CPU  0 instructions:  229000002 cycles:  166884382 heartbeat IPC: 0.89199 cumulative IPC: 1.10900 (Simulation time: 0 hr 7 min 23 sec) 
Heartbeat CPU  0 instructions:  230000000 cycles:  168010083 heartbeat IPC: 0.88833 cumulative IPC: 1.10689 (Simulation time: 0 hr 7 min 26 sec) 
Heartbeat CPU  0 instructions:  231000001 cycles:  169131688 heartbeat IPC: 0.89158 cumulative IPC: 1.10485 (Simulation time: 0 hr 7 min 28 sec) 
Heartbeat CPU  0 instructions:  232000000 cycles:  170272034 heartbeat IPC: 0.87693 cumulative IPC: 1.10268 (Simulation time: 0 hr 7 min 31 sec) 
Heartbeat CPU  0 instructions:  233000001 cycles:  171400499 heartbeat IPC: 0.88616 cumulative IPC: 1.10066 (Simulation time: 0 hr 7 min 33 sec) 
Heartbeat CPU  0 instructions:  234000000 cycles:  172533980 heartbeat IPC: 0.88224 cumulative IPC: 1.09863 (Simulation time: 0 hr 7 min 36 sec) 
Heartbeat CPU  0 instructions:  235000002 cycles:  173659062 heartbeat IPC: 0.88883 cumulative IPC: 1.09671 (Simulation time: 0 hr 7 min 38 sec) 
Heartbeat CPU  0 instructions:  236000000 cycles:  174774848 heartbeat IPC: 0.89623 cumulative IPC: 1.09491 (Simulation time: 0 hr 7 min 41 sec) 
Heartbeat CPU  0 instructions:  237000003 cycles:  175906898 heartbeat IPC: 0.88336 cumulative IPC: 1.09300 (Simulation time: 0 hr 7 min 43 sec) 
Heartbeat CPU  0 instructions:  238000003 cycles:  177030400 heartbeat IPC: 0.89007 cumulative IPC: 1.09119 (Simulation time: 0 hr 7 min 45 sec) 
Heartbeat CPU  0 instructions:  239000000 cycles:  178157940 heartbeat IPC: 0.88688 cumulative IPC: 1.08939 (Simulation time: 0 hr 7 min 48 sec) 
Heartbeat CPU  0 instructions:  240000000 cycles:  179288401 heartbeat IPC: 0.88459 cumulative IPC: 1.08759 (Simulation time: 0 hr 7 min 50 sec) 
Heartbeat CPU  0 instructions:  241000000 cycles:  180419907 heartbeat IPC: 0.88378 cumulative IPC: 1.08581 (Simulation time: 0 hr 7 min 53 sec) 
Heartbeat CPU  0 instructions:  242000001 cycles:  181547944 heartbeat IPC: 0.88650 cumulative IPC: 1.08410 (Simulation time: 0 hr 7 min 55 sec) 
Heartbeat CPU  0 instructions:  243000000 cycles:  182686053 heartbeat IPC: 0.87865 cumulative IPC: 1.08233 (Simulation time: 0 hr 7 min 58 sec) 
Heartbeat CPU  0 instructions:  244000000 cycles:  183815550 heartbeat IPC: 0.88535 cumulative IPC: 1.08066 (Simulation time: 0 hr 8 min 0 sec) 
Heartbeat CPU  0 instructions:  245000002 cycles:  184924609 heartbeat IPC: 0.90167 cumulative IPC: 1.07918 (Simulation time: 0 hr 8 min 3 sec) 
Heartbeat CPU  0 instructions:  246000003 cycles:  186013121 heartbeat IPC: 0.91869 cumulative IPC: 1.07789 (Simulation time: 0 hr 8 min 5 sec) 
Heartbeat CPU  0 instructions:  247000003 cycles:  187115992 heartbeat IPC: 0.90672 cumulative IPC: 1.07651 (Simulation time: 0 hr 8 min 8 sec) 
Heartbeat CPU  0 instructions:  248000000 cycles:  188229246 heartbeat IPC: 0.89826 cumulative IPC: 1.07507 (Simulation time: 0 hr 8 min 10 sec) 
Heartbeat CPU  0 instructions:  249000003 cycles:  189353386 heartbeat IPC: 0.88957 cumulative IPC: 1.07357 (Simulation time: 0 hr 8 min 13 sec) 
Heartbeat CPU  0 instructions:  250000000 cycles:  190484029 heartbeat IPC: 0.88445 cumulative IPC: 1.07204 (Simulation time: 0 hr 8 min 15 sec) 
Heartbeat CPU  0 instructions:  251000000 cycles:  191489795 heartbeat IPC: 0.99427 cumulative IPC: 1.07148 (Simulation time: 0 hr 8 min 17 sec) 
Heartbeat CPU  0 instructions:  252000000 cycles:  192341613 heartbeat IPC: 1.17396 cumulative IPC: 1.07210 (Simulation time: 0 hr 8 min 19 sec) 
Heartbeat CPU  0 instructions:  253000002 cycles:  193198698 heartbeat IPC: 1.16675 cumulative IPC: 1.07267 (Simulation time: 0 hr 8 min 22 sec) 
Heartbeat CPU  0 instructions:  254000003 cycles:  194056088 heartbeat IPC: 1.16633 cumulative IPC: 1.07323 (Simulation time: 0 hr 8 min 24 sec) 
Heartbeat CPU  0 instructions:  255000000 cycles:  194914147 heartbeat IPC: 1.16542 cumulative IPC: 1.07377 (Simulation time: 0 hr 8 min 26 sec) 
Heartbeat CPU  0 instructions:  256000000 cycles:  195769793 heartbeat IPC: 1.16871 cumulative IPC: 1.07433 (Simulation time: 0 hr 8 min 28 sec) 
Heartbeat CPU  0 instructions:  257000000 cycles:  196625588 heartbeat IPC: 1.16850 cumulative IPC: 1.07489 (Simulation time: 0 hr 8 min 30 sec) 
Heartbeat CPU  0 instructions:  258000002 cycles:  197477194 heartbeat IPC: 1.17425 cumulative IPC: 1.07546 (Simulation time: 0 hr 8 min 32 sec) 
Heartbeat CPU  0 instructions:  259000000 cycles:  198328027 heartbeat IPC: 1.17532 cumulative IPC: 1.07604 (Simulation time: 0 hr 8 min 34 sec) 
Heartbeat CPU  0 instructions:  260000000 cycles:  199179778 heartbeat IPC: 1.17405 cumulative IPC: 1.07660 (Simulation time: 0 hr 8 min 36 sec) 
Heartbeat CPU  0 instructions:  261000001 cycles:  200034170 heartbeat IPC: 1.17042 cumulative IPC: 1.07713 (Simulation time: 0 hr 8 min 38 sec) 
Heartbeat CPU  0 instructions:  262000000 cycles:  200896782 heartbeat IPC: 1.15927 cumulative IPC: 1.07761 (Simulation time: 0 hr 8 min 40 sec) 
Heartbeat CPU  0 instructions:  263000003 cycles:  201747741 heartbeat IPC: 1.17515 cumulative IPC: 1.07815 (Simulation time: 0 hr 8 min 43 sec) 
Heartbeat CPU  0 instructions:  264000000 cycles:  202605899 heartbeat IPC: 1.16528 cumulative IPC: 1.07865 (Simulation time: 0 hr 8 min 45 sec) 
Heartbeat CPU  0 instructions:  265000002 cycles:  203456897 heartbeat IPC: 1.17509 cumulative IPC: 1.07918 (Simulation time: 0 hr 8 min 47 sec) 
Heartbeat CPU  0 instructions:  266000000 cycles:  204312555 heartbeat IPC: 1.16869 cumulative IPC: 1.07968 (Simulation time: 0 hr 8 min 49 sec) 
Heartbeat CPU  0 instructions:  267000000 cycles:  205160928 heartbeat IPC: 1.17873 cumulative IPC: 1.08022 (Simulation time: 0 hr 8 min 51 sec) 
Heartbeat CPU  0 instructions:  268000000 cycles:  206012071 heartbeat IPC: 1.17489 cumulative IPC: 1.08074 (Simulation time: 0 hr 8 min 53 sec) 
Heartbeat CPU  0 instructions:  269000000 cycles:  206858839 heartbeat IPC: 1.18096 cumulative IPC: 1.08129 (Simulation time: 0 hr 8 min 55 sec) 
Heartbeat CPU  0 instructions:  270000003 cycles:  207705615 heartbeat IPC: 1.18095 cumulative IPC: 1.08182 (Simulation time: 0 hr 8 min 57 sec) 
Heartbeat CPU  0 instructions:  271000000 cycles:  208553718 heartbeat IPC: 1.17910 cumulative IPC: 1.08235 (Simulation time: 0 hr 8 min 59 sec) 
Heartbeat CPU  0 instructions:  272000000 cycles:  209420594 heartbeat IPC: 1.15357 cumulative IPC: 1.08273 (Simulation time: 0 hr 9 min 2 sec) 
Heartbeat CPU  0 instructions:  273000000 cycles:  210271678 heartbeat IPC: 1.17497 cumulative IPC: 1.08323 (Simulation time: 0 hr 9 min 4 sec) 
Heartbeat CPU  0 instructions:  274000001 cycles:  211123047 heartbeat IPC: 1.17458 cumulative IPC: 1.08371 (Simulation time: 0 hr 9 min 6 sec) 
Heartbeat CPU  0 instructions:  275000000 cycles:  211976315 heartbeat IPC: 1.17196 cumulative IPC: 1.08418 (Simulation time: 0 hr 9 min 8 sec) 
Heartbeat CPU  0 instructions:  276000000 cycles:  212828517 heartbeat IPC: 1.17343 cumulative IPC: 1.08465 (Simulation time: 0 hr 9 min 10 sec) 
Heartbeat CPU  0 instructions:  277000002 cycles:  213684480 heartbeat IPC: 1.16828 cumulative IPC: 1.08508 (Simulation time: 0 hr 9 min 12 sec) 
Heartbeat CPU  0 instructions:  278000002 cycles:  214537182 heartbeat IPC: 1.17274 cumulative IPC: 1.08554 (Simulation time: 0 hr 9 min 14 sec) 
Heartbeat CPU  0 instructions:  279000000 cycles:  215385600 heartbeat IPC: 1.17866 cumulative IPC: 1.08602 (Simulation time: 0 hr 9 min 16 sec) 
Heartbeat CPU  0 instructions:  280000000 cycles:  216230929 heartbeat IPC: 1.18297 cumulative IPC: 1.08651 (Simulation time: 0 hr 9 min 18 sec) 
Heartbeat CPU  0 instructions:  281000002 cycles:  217078493 heartbeat IPC: 1.17985 cumulative IPC: 1.08699 (Simulation time: 0 hr 9 min 21 sec) 
Heartbeat CPU  0 instructions:  282000002 cycles:  217942837 heartbeat IPC: 1.15695 cumulative IPC: 1.08735 (Simulation time: 0 hr 9 min 23 sec) 
Heartbeat CPU  0 instructions:  283000001 cycles:  218794150 heartbeat IPC: 1.17465 cumulative IPC: 1.08779 (Simulation time: 0 hr 9 min 25 sec) 
Heartbeat CPU  0 instructions:  284000000 cycles:  219646351 heartbeat IPC: 1.17343 cumulative IPC: 1.08822 (Simulation time: 0 hr 9 min 27 sec) 
Heartbeat CPU  0 instructions:  285000003 cycles:  220505877 heartbeat IPC: 1.16344 cumulative IPC: 1.08860 (Simulation time: 0 hr 9 min 29 sec) 
Heartbeat CPU  0 instructions:  286000003 cycles:  221359219 heartbeat IPC: 1.17186 cumulative IPC: 1.08902 (Simulation time: 0 hr 9 min 31 sec) 
Heartbeat CPU  0 instructions:  287000001 cycles:  222216779 heartbeat IPC: 1.16610 cumulative IPC: 1.08941 (Simulation time: 0 hr 9 min 33 sec) 
Heartbeat CPU  0 instructions:  288000000 cycles:  223069301 heartbeat IPC: 1.17299 cumulative IPC: 1.08982 (Simulation time: 0 hr 9 min 35 sec) 
Heartbeat CPU  0 instructions:  289000001 cycles:  223916898 heartbeat IPC: 1.17981 cumulative IPC: 1.09026 (Simulation time: 0 hr 9 min 37 sec) 
Heartbeat CPU  0 instructions:  290000003 cycles:  224768032 heartbeat IPC: 1.17491 cumulative IPC: 1.09067 (Simulation time: 0 hr 9 min 40 sec) 
Heartbeat CPU  0 instructions:  291000003 cycles:  225613660 heartbeat IPC: 1.18255 cumulative IPC: 1.09112 (Simulation time: 0 hr 9 min 42 sec) 
Heartbeat CPU  0 instructions:  292000000 cycles:  226464293 heartbeat IPC: 1.17559 cumulative IPC: 1.09152 (Simulation time: 0 hr 9 min 44 sec) 
Heartbeat CPU  0 instructions:  293000002 cycles:  227328814 heartbeat IPC: 1.15671 cumulative IPC: 1.09184 (Simulation time: 0 hr 9 min 46 sec) 
Heartbeat CPU  0 instructions:  294000002 cycles:  228182105 heartbeat IPC: 1.17193 cumulative IPC: 1.09223 (Simulation time: 0 hr 9 min 48 sec) 
Heartbeat CPU  0 instructions:  295000001 cycles:  229033338 heartbeat IPC: 1.17477 cumulative IPC: 1.09262 (Simulation time: 0 hr 9 min 50 sec) 
Heartbeat CPU  0 instructions:  296000000 cycles:  229887044 heartbeat IPC: 1.17136 cumulative IPC: 1.09300 (Simulation time: 0 hr 9 min 52 sec) 
Heartbeat CPU  0 instructions:  297000003 cycles:  230735238 heartbeat IPC: 1.17898 cumulative IPC: 1.09340 (Simulation time: 0 hr 9 min 54 sec) 
Heartbeat CPU  0 instructions:  298000000 cycles:  231588097 heartbeat IPC: 1.17252 cumulative IPC: 1.09377 (Simulation time: 0 hr 9 min 57 sec) 
Heartbeat CPU  0 instructions:  299000003 cycles:  232435723 heartbeat IPC: 1.17977 cumulative IPC: 1.09417 (Simulation time: 0 hr 9 min 59 sec) 
Heartbeat CPU  0 instructions:  300000000 cycles:  233284775 heartbeat IPC: 1.17778 cumulative IPC: 1.09456 (Simulation time: 0 hr 10 min 1 sec) 
Heartbeat CPU  0 instructions:  301000000 cycles:  234131367 heartbeat IPC: 1.18121 cumulative IPC: 1.09496 (Simulation time: 0 hr 10 min 3 sec) 
Heartbeat CPU  0 instructions:  302000003 cycles:  234980466 heartbeat IPC: 1.17772 cumulative IPC: 1.09534 (Simulation time: 0 hr 10 min 5 sec) 
Heartbeat CPU  0 instructions:  303000002 cycles:  235846271 heartbeat IPC: 1.15499 cumulative IPC: 1.09562 (Simulation time: 0 hr 10 min 7 sec) 
Heartbeat CPU  0 instructions:  304000000 cycles:  236699038 heartbeat IPC: 1.17265 cumulative IPC: 1.09598 (Simulation time: 0 hr 10 min 9 sec) 
Heartbeat CPU  0 instructions:  305000003 cycles:  237555088 heartbeat IPC: 1.16816 cumulative IPC: 1.09631 (Simulation time: 0 hr 10 min 11 sec) 
Heartbeat CPU  0 instructions:  306000001 cycles:  238408548 heartbeat IPC: 1.17170 cumulative IPC: 1.09665 (Simulation time: 0 hr 10 min 13 sec) 
Heartbeat CPU  0 instructions:  307000003 cycles:  239264197 heartbeat IPC: 1.16871 cumulative IPC: 1.09698 (Simulation time: 0 hr 10 min 16 sec) 
Heartbeat CPU  0 instructions:  308000000 cycles:  240117322 heartbeat IPC: 1.17216 cumulative IPC: 1.09731 (Simulation time: 0 hr 10 min 18 sec) 
Heartbeat CPU  0 instructions:  309000001 cycles:  240973881 heartbeat IPC: 1.16746 cumulative IPC: 1.09763 (Simulation time: 0 hr 10 min 20 sec) 
Heartbeat CPU  0 instructions:  310000000 cycles:  241818800 heartbeat IPC: 1.18354 cumulative IPC: 1.09801 (Simulation time: 0 hr 10 min 22 sec) 
Heartbeat CPU  0 instructions:  311000000 cycles:  242665103 heartbeat IPC: 1.18161 cumulative IPC: 1.09838 (Simulation time: 0 hr 10 min 24 sec) 
Heartbeat CPU  0 instructions:  312000000 cycles:  243514091 heartbeat IPC: 1.17787 cumulative IPC: 1.09873 (Simulation time: 0 hr 10 min 26 sec) 
Heartbeat CPU  0 instructions:  313000003 cycles:  244363519 heartbeat IPC: 1.17727 cumulative IPC: 1.09907 (Simulation time: 0 hr 10 min 28 sec) 
Heartbeat CPU  0 instructions:  314000001 cycles:  245228156 heartbeat IPC: 1.15655 cumulative IPC: 1.09933 (Simulation time: 0 hr 10 min 30 sec) 
Heartbeat CPU  0 instructions:  315000000 cycles:  246082252 heartbeat IPC: 1.17083 cumulative IPC: 1.09964 (Simulation time: 0 hr 10 min 32 sec) 
Heartbeat CPU  0 instructions:  316000000 cycles:  246931122 heartbeat IPC: 1.17804 cumulative IPC: 1.09998 (Simulation time: 0 hr 10 min 35 sec) 
Heartbeat CPU  0 instructions:  317000003 cycles:  247788932 heartbeat IPC: 1.16576 cumulative IPC: 1.10026 (Simulation time: 0 hr 10 min 37 sec) 
Heartbeat CPU  0 instructions:  318000002 cycles:  248642871 heartbeat IPC: 1.17104 cumulative IPC: 1.10057 (Simulation time: 0 hr 10 min 39 sec) 
Heartbeat CPU  0 instructions:  319000002 cycles:  249492092 heartbeat IPC: 1.17755 cumulative IPC: 1.10090 (Simulation time: 0 hr 10 min 41 sec) 
Heartbeat CPU  0 instructions:  320000000 cycles:  250343619 heartbeat IPC: 1.17436 cumulative IPC: 1.10121 (Simulation time: 0 hr 10 min 43 sec) 
Heartbeat CPU  0 instructions:  321000002 cycles:  251190299 heartbeat IPC: 1.18109 cumulative IPC: 1.10155 (Simulation time: 0 hr 10 min 45 sec) 
Heartbeat CPU  0 instructions:  322000002 cycles:  252037431 heartbeat IPC: 1.18045 cumulative IPC: 1.10188 (Simulation time: 0 hr 10 min 47 sec) 
Heartbeat CPU  0 instructions:  323000002 cycles:  252886230 heartbeat IPC: 1.17814 cumulative IPC: 1.10220 (Simulation time: 0 hr 10 min 49 sec) 
Heartbeat CPU  0 instructions:  324000000 cycles:  253749620 heartbeat IPC: 1.15822 cumulative IPC: 1.10244 (Simulation time: 0 hr 10 min 52 sec) 
Heartbeat CPU  0 instructions:  325000002 cycles:  254601000 heartbeat IPC: 1.17457 cumulative IPC: 1.10274 (Simulation time: 0 hr 10 min 54 sec) 
Heartbeat CPU  0 instructions:  326000000 cycles:  255457056 heartbeat IPC: 1.16815 cumulative IPC: 1.10301 (Simulation time: 0 hr 10 min 56 sec) 
Heartbeat CPU  0 instructions:  327000002 cycles:  256307176 heartbeat IPC: 1.17631 cumulative IPC: 1.10331 (Simulation time: 0 hr 10 min 58 sec) 
Heartbeat CPU  0 instructions:  328000000 cycles:  257162453 heartbeat IPC: 1.16921 cumulative IPC: 1.10359 (Simulation time: 0 hr 11 min 0 sec) 
Heartbeat CPU  0 instructions:  329000001 cycles:  258017151 heartbeat IPC: 1.17001 cumulative IPC: 1.10386 (Simulation time: 0 hr 11 min 2 sec) 
Heartbeat CPU  0 instructions:  330000001 cycles:  258871525 heartbeat IPC: 1.17045 cumulative IPC: 1.10413 (Simulation time: 0 hr 11 min 4 sec) 
Heartbeat CPU  0 instructions:  331000001 cycles:  259719084 heartbeat IPC: 1.17986 cumulative IPC: 1.10444 (Simulation time: 0 hr 11 min 6 sec) 
Heartbeat CPU  0 instructions:  332000000 cycles:  260564995 heartbeat IPC: 1.18216 cumulative IPC: 1.10475 (Simulation time: 0 hr 11 min 8 sec) 
Heartbeat CPU  0 instructions:  333000001 cycles:  261413527 heartbeat IPC: 1.17851 cumulative IPC: 1.10505 (Simulation time: 0 hr 11 min 10 sec) 
Heartbeat CPU  0 instructions:  334000003 cycles:  262259858 heartbeat IPC: 1.18157 cumulative IPC: 1.10536 (Simulation time: 0 hr 11 min 13 sec) 
Heartbeat CPU  0 instructions:  335000002 cycles:  263129866 heartbeat IPC: 1.14941 cumulative IPC: 1.10554 (Simulation time: 0 hr 11 min 15 sec) 
Heartbeat CPU  0 instructions:  336000000 cycles:  263977397 heartbeat IPC: 1.17990 cumulative IPC: 1.10583 (Simulation time: 0 hr 11 min 17 sec) 
Heartbeat CPU  0 instructions:  337000002 cycles:  264833065 heartbeat IPC: 1.16868 cumulative IPC: 1.10608 (Simulation time: 0 hr 11 min 19 sec) 
Heartbeat CPU  0 instructions:  338000002 cycles:  265683395 heartbeat IPC: 1.17601 cumulative IPC: 1.10636 (Simulation time: 0 hr 11 min 21 sec) 
Heartbeat CPU  0 instructions:  339000002 cycles:  266536036 heartbeat IPC: 1.17283 cumulative IPC: 1.10662 (Simulation time: 0 hr 11 min 23 sec) 
Heartbeat CPU  0 instructions:  340000000 cycles:  267388160 heartbeat IPC: 1.17354 cumulative IPC: 1.10689 (Simulation time: 0 hr 11 min 25 sec) 
Heartbeat CPU  0 instructions:  341000001 cycles:  268239427 heartbeat IPC: 1.17472 cumulative IPC: 1.10715 (Simulation time: 0 hr 11 min 27 sec) 
Heartbeat CPU  0 instructions:  342000003 cycles:  269085355 heartbeat IPC: 1.18214 cumulative IPC: 1.10744 (Simulation time: 0 hr 11 min 29 sec) 
Heartbeat CPU  0 instructions:  343000003 cycles:  269931892 heartbeat IPC: 1.18128 cumulative IPC: 1.10773 (Simulation time: 0 hr 11 min 32 sec) 
Heartbeat CPU  0 instructions:  344000000 cycles:  270776842 heartbeat IPC: 1.18350 cumulative IPC: 1.10802 (Simulation time: 0 hr 11 min 34 sec) 
Heartbeat CPU  0 instructions:  345000001 cycles:  271638926 heartbeat IPC: 1.15998 cumulative IPC: 1.10822 (Simulation time: 0 hr 11 min 36 sec) 
Heartbeat CPU  0 instructions:  346000003 cycles:  272491959 heartbeat IPC: 1.17229 cumulative IPC: 1.10847 (Simulation time: 0 hr 11 min 38 sec) 
Heartbeat CPU  0 instructions:  347000003 cycles:  273344626 heartbeat IPC: 1.17279 cumulative IPC: 1.10871 (Simulation time: 0 hr 11 min 40 sec) 
Heartbeat CPU  0 instructions:  348000000 cycles:  274199771 heartbeat IPC: 1.16939 cumulative IPC: 1.10894 (Simulation time: 0 hr 11 min 42 sec) 
Heartbeat CPU  0 instructions:  349000000 cycles:  275051911 heartbeat IPC: 1.17352 cumulative IPC: 1.10919 (Simulation time: 0 hr 11 min 44 sec) 
Heartbeat CPU  0 instructions:  350000003 cycles:  275904495 heartbeat IPC: 1.17291 cumulative IPC: 1.10943 (Simulation time: 0 hr 11 min 46 sec) 
Heartbeat CPU  0 instructions:  351000002 cycles:  276761138 heartbeat IPC: 1.16735 cumulative IPC: 1.10965 (Simulation time: 0 hr 11 min 48 sec) 
Heartbeat CPU  0 instructions:  352000000 cycles:  277609934 heartbeat IPC: 1.17814 cumulative IPC: 1.10991 (Simulation time: 0 hr 11 min 51 sec) 
Heartbeat CPU  0 instructions:  353000003 cycles:  278457448 heartbeat IPC: 1.17993 cumulative IPC: 1.11017 (Simulation time: 0 hr 11 min 53 sec) 
Heartbeat CPU  0 instructions:  354000003 cycles:  279306074 heartbeat IPC: 1.17838 cumulative IPC: 1.11042 (Simulation time: 0 hr 11 min 55 sec) 
Heartbeat CPU  0 instructions:  355000000 cycles:  280149920 heartbeat IPC: 1.18505 cumulative IPC: 1.11069 (Simulation time: 0 hr 11 min 57 sec) 
Heartbeat CPU  0 instructions:  356000000 cycles:  281016823 heartbeat IPC: 1.15353 cumulative IPC: 1.11085 (Simulation time: 0 hr 11 min 59 sec) 
Heartbeat CPU  0 instructions:  357000001 cycles:  281865546 heartbeat IPC: 1.17824 cumulative IPC: 1.11110 (Simulation time: 0 hr 12 min 1 sec) 
Heartbeat CPU  0 instructions:  358000003 cycles:  282712312 heartbeat IPC: 1.18097 cumulative IPC: 1.11136 (Simulation time: 0 hr 12 min 3 sec) 
Heartbeat CPU  0 instructions:  359000000 cycles:  283564790 heartbeat IPC: 1.17305 cumulative IPC: 1.11158 (Simulation time: 0 hr 12 min 5 sec) 
Heartbeat CPU  0 instructions:  360000000 cycles:  284418905 heartbeat IPC: 1.17080 cumulative IPC: 1.11180 (Simulation time: 0 hr 12 min 7 sec) 
Heartbeat CPU  0 instructions:  361000002 cycles:  285272423 heartbeat IPC: 1.17162 cumulative IPC: 1.11202 (Simulation time: 0 hr 12 min 10 sec) 
Heartbeat CPU  0 instructions:  362000002 cycles:  286123413 heartbeat IPC: 1.17510 cumulative IPC: 1.11224 (Simulation time: 0 hr 12 min 12 sec) 
Heartbeat CPU  0 instructions:  363000002 cycles:  286969600 heartbeat IPC: 1.18177 cumulative IPC: 1.11249 (Simulation time: 0 hr 12 min 14 sec) 
Heartbeat CPU  0 instructions:  364000000 cycles:  287815682 heartbeat IPC: 1.18192 cumulative IPC: 1.11274 (Simulation time: 0 hr 12 min 16 sec) 
Heartbeat CPU  0 instructions:  365000001 cycles:  288665815 heartbeat IPC: 1.17629 cumulative IPC: 1.11297 (Simulation time: 0 hr 12 min 18 sec) 
Heartbeat CPU  0 instructions:  366000001 cycles:  289526564 heartbeat IPC: 1.16178 cumulative IPC: 1.11314 (Simulation time: 0 hr 12 min 20 sec) 
Heartbeat CPU  0 instructions:  367000003 cycles:  290382778 heartbeat IPC: 1.16793 cumulative IPC: 1.11334 (Simulation time: 0 hr 12 min 22 sec) 
Heartbeat CPU  0 instructions:  368000000 cycles:  291235420 heartbeat IPC: 1.17282 cumulative IPC: 1.11355 (Simulation time: 0 hr 12 min 24 sec) 
Heartbeat CPU  0 instructions:  369000001 cycles:  292093348 heartbeat IPC: 1.16560 cumulative IPC: 1.11373 (Simulation time: 0 hr 12 min 26 sec) 
Heartbeat CPU  0 instructions:  370000002 cycles:  292943983 heartbeat IPC: 1.17559 cumulative IPC: 1.11395 (Simulation time: 0 hr 12 min 28 sec) 
Heartbeat CPU  0 instructions:  371000002 cycles:  293798286 heartbeat IPC: 1.17054 cumulative IPC: 1.11415 (Simulation time: 0 hr 12 min 31 sec) 
Heartbeat CPU  0 instructions:  372000000 cycles:  294648322 heartbeat IPC: 1.17642 cumulative IPC: 1.11437 (Simulation time: 0 hr 12 min 33 sec) 
Heartbeat CPU  0 instructions:  373000001 cycles:  295499017 heartbeat IPC: 1.17551 cumulative IPC: 1.11458 (Simulation time: 0 hr 12 min 35 sec) 
Heartbeat CPU  0 instructions:  374000001 cycles:  296344395 heartbeat IPC: 1.18290 cumulative IPC: 1.11481 (Simulation time: 0 hr 12 min 37 sec) 
Heartbeat CPU  0 instructions:  375000000 cycles:  297192623 heartbeat IPC: 1.17893 cumulative IPC: 1.11503 (Simulation time: 0 hr 12 min 39 sec) 
Heartbeat CPU  0 instructions:  376000000 cycles:  298040296 heartbeat IPC: 1.17970 cumulative IPC: 1.11526 (Simulation time: 0 hr 12 min 41 sec) 
Heartbeat CPU  0 instructions:  377000002 cycles:  298907037 heartbeat IPC: 1.15375 cumulative IPC: 1.11539 (Simulation time: 0 hr 12 min 43 sec) 
Heartbeat CPU  0 instructions:  378000000 cycles:  299764142 heartbeat IPC: 1.16672 cumulative IPC: 1.11557 (Simulation time: 0 hr 12 min 45 sec) 
Heartbeat CPU  0 instructions:  379000000 cycles:  300615523 heartbeat IPC: 1.17456 cumulative IPC: 1.11577 (Simulation time: 0 hr 12 min 47 sec) 
Heartbeat CPU  0 instructions:  380000000 cycles:  301468018 heartbeat IPC: 1.17303 cumulative IPC: 1.11596 (Simulation time: 0 hr 12 min 49 sec) 
Heartbeat CPU  0 instructions:  381000002 cycles:  302321399 heartbeat IPC: 1.17181 cumulative IPC: 1.11615 (Simulation time: 0 hr 12 min 52 sec) 
Heartbeat CPU  0 instructions:  382000000 cycles:  303175771 heartbeat IPC: 1.17045 cumulative IPC: 1.11634 (Simulation time: 0 hr 12 min 54 sec) 
Heartbeat CPU  0 instructions:  383000000 cycles:  304028397 heartbeat IPC: 1.17285 cumulative IPC: 1.11653 (Simulation time: 0 hr 12 min 56 sec) 
Heartbeat CPU  0 instructions:  384000000 cycles:  304876679 heartbeat IPC: 1.17885 cumulative IPC: 1.11673 (Simulation time: 0 hr 12 min 58 sec) 
Heartbeat CPU  0 instructions:  385000001 cycles:  305720175 heartbeat IPC: 1.18554 cumulative IPC: 1.11696 (Simulation time: 0 hr 13 min 0 sec) 
Heartbeat CPU  0 instructions:  386000002 cycles:  306570915 heartbeat IPC: 1.17545 cumulative IPC: 1.11716 (Simulation time: 0 hr 13 min 2 sec) 
Heartbeat CPU  0 instructions:  387000000 cycles:  307436645 heartbeat IPC: 1.15509 cumulative IPC: 1.11728 (Simulation time: 0 hr 13 min 4 sec) 
Heartbeat CPU  0 instructions:  388000000 cycles:  308291272 heartbeat IPC: 1.17010 cumulative IPC: 1.11746 (Simulation time: 0 hr 13 min 6 sec) 
Heartbeat CPU  0 instructions:  389000003 cycles:  309143005 heartbeat IPC: 1.17408 cumulative IPC: 1.11764 (Simulation time: 0 hr 13 min 9 sec) 
Heartbeat CPU  0 instructions:  390000003 cycles:  309997869 heartbeat IPC: 1.16978 cumulative IPC: 1.11782 (Simulation time: 0 hr 13 min 11 sec) 
Heartbeat CPU  0 instructions:  391000002 cycles:  310851278 heartbeat IPC: 1.17177 cumulative IPC: 1.11799 (Simulation time: 0 hr 13 min 13 sec) 
Heartbeat CPU  0 instructions:  392000000 cycles:  311706754 heartbeat IPC: 1.16894 cumulative IPC: 1.11816 (Simulation time: 0 hr 13 min 15 sec) 
Heartbeat CPU  0 instructions:  393000003 cycles:  312563251 heartbeat IPC: 1.16755 cumulative IPC: 1.11832 (Simulation time: 0 hr 13 min 17 sec) 
Heartbeat CPU  0 instructions:  394000003 cycles:  313408147 heartbeat IPC: 1.18358 cumulative IPC: 1.11853 (Simulation time: 0 hr 13 min 19 sec) 
Heartbeat CPU  0 instructions:  395000003 cycles:  314257484 heartbeat IPC: 1.17739 cumulative IPC: 1.11872 (Simulation time: 0 hr 13 min 21 sec) 
Heartbeat CPU  0 instructions:  396000000 cycles:  315105717 heartbeat IPC: 1.17892 cumulative IPC: 1.11891 (Simulation time: 0 hr 13 min 23 sec) 
Heartbeat CPU  0 instructions:  397000001 cycles:  315953996 heartbeat IPC: 1.17886 cumulative IPC: 1.11911 (Simulation time: 0 hr 13 min 25 sec) 
Heartbeat CPU  0 instructions:  398000001 cycles:  316700357 heartbeat IPC: 1.33983 cumulative IPC: 1.11972 (Simulation time: 0 hr 13 min 27 sec) 
Heartbeat CPU  0 instructions:  399000000 cycles:  317666296 heartbeat IPC: 1.03526 cumulative IPC: 1.11942 (Simulation time: 0 hr 13 min 29 sec) 
Heartbeat CPU  0 instructions:  400000000 cycles:  318633137 heartbeat IPC: 1.03430 cumulative IPC: 1.11911 (Simulation time: 0 hr 13 min 31 sec) 
Heartbeat CPU  0 instructions:  401000001 cycles:  319597450 heartbeat IPC: 1.03701 cumulative IPC: 1.11882 (Simulation time: 0 hr 13 min 34 sec) 
Heartbeat CPU  0 instructions:  402000003 cycles:  320562366 heartbeat IPC: 1.03636 cumulative IPC: 1.11852 (Simulation time: 0 hr 13 min 36 sec) 
Heartbeat CPU  0 instructions:  403000000 cycles:  321525206 heartbeat IPC: 1.03859 cumulative IPC: 1.11824 (Simulation time: 0 hr 13 min 38 sec) 
Heartbeat CPU  0 instructions:  404000000 cycles:  322492676 heartbeat IPC: 1.03362 cumulative IPC: 1.11794 (Simulation time: 0 hr 13 min 40 sec) 
Heartbeat CPU  0 instructions:  405000003 cycles:  323458213 heartbeat IPC: 1.03570 cumulative IPC: 1.11765 (Simulation time: 0 hr 13 min 42 sec) 
Heartbeat CPU  0 instructions:  406000003 cycles:  324423713 heartbeat IPC: 1.03573 cumulative IPC: 1.11736 (Simulation time: 0 hr 13 min 44 sec) 
Heartbeat CPU  0 instructions:  407000000 cycles:  325387703 heartbeat IPC: 1.03735 cumulative IPC: 1.11708 (Simulation time: 0 hr 13 min 47 sec) 
Heartbeat CPU  0 instructions:  408000000 cycles:  326354495 heartbeat IPC: 1.03435 cumulative IPC: 1.11679 (Simulation time: 0 hr 13 min 49 sec) 
Heartbeat CPU  0 instructions:  409000002 cycles:  327316194 heartbeat IPC: 1.03983 cumulative IPC: 1.11652 (Simulation time: 0 hr 13 min 51 sec) 
Heartbeat CPU  0 instructions:  410000002 cycles:  328280086 heartbeat IPC: 1.03746 cumulative IPC: 1.11625 (Simulation time: 0 hr 13 min 53 sec) 
Heartbeat CPU  0 instructions:  411000000 cycles:  329246515 heartbeat IPC: 1.03474 cumulative IPC: 1.11596 (Simulation time: 0 hr 13 min 55 sec) 
Heartbeat CPU  0 instructions:  412000000 cycles:  330210826 heartbeat IPC: 1.03701 cumulative IPC: 1.11569 (Simulation time: 0 hr 13 min 58 sec) 
Heartbeat CPU  0 instructions:  413000001 cycles:  331175646 heartbeat IPC: 1.03646 cumulative IPC: 1.11542 (Simulation time: 0 hr 14 min 0 sec) 
Heartbeat CPU  0 instructions:  414000000 cycles:  332139388 heartbeat IPC: 1.03762 cumulative IPC: 1.11515 (Simulation time: 0 hr 14 min 2 sec) 
Heartbeat CPU  0 instructions:  415000002 cycles:  333106885 heartbeat IPC: 1.03360 cumulative IPC: 1.11487 (Simulation time: 0 hr 14 min 4 sec) 
Heartbeat CPU  0 instructions:  416000000 cycles:  334072681 heartbeat IPC: 1.03541 cumulative IPC: 1.11460 (Simulation time: 0 hr 14 min 6 sec) 
Heartbeat CPU  0 instructions:  417000001 cycles:  335037918 heartbeat IPC: 1.03602 cumulative IPC: 1.11434 (Simulation time: 0 hr 14 min 8 sec) 
Heartbeat CPU  0 instructions:  418000002 cycles:  336003056 heartbeat IPC: 1.03612 cumulative IPC: 1.11407 (Simulation time: 0 hr 14 min 11 sec) 
Heartbeat CPU  0 instructions:  419000003 cycles:  336969236 heartbeat IPC: 1.03500 cumulative IPC: 1.11380 (Simulation time: 0 hr 14 min 13 sec) 
Heartbeat CPU  0 instructions:  420000000 cycles:  337933076 heartbeat IPC: 1.03751 cumulative IPC: 1.11355 (Simulation time: 0 hr 14 min 15 sec) 
Heartbeat CPU  0 instructions:  421000002 cycles:  338896241 heartbeat IPC: 1.03825 cumulative IPC: 1.11330 (Simulation time: 0 hr 14 min 17 sec) 
Heartbeat CPU  0 instructions:  422000000 cycles:  339864112 heartbeat IPC: 1.03319 cumulative IPC: 1.11303 (Simulation time: 0 hr 14 min 19 sec) 
Heartbeat CPU  0 instructions:  423000003 cycles:  340827216 heartbeat IPC: 1.03831 cumulative IPC: 1.11278 (Simulation time: 0 hr 14 min 22 sec) 
Heartbeat CPU  0 instructions:  424000000 cycles:  341789724 heartbeat IPC: 1.03895 cumulative IPC: 1.11254 (Simulation time: 0 hr 14 min 24 sec) 
Heartbeat CPU  0 instructions:  425000000 cycles:  342754346 heartbeat IPC: 1.03668 cumulative IPC: 1.11229 (Simulation time: 0 hr 14 min 26 sec) 
Heartbeat CPU  0 instructions:  426000000 cycles:  343720073 heartbeat IPC: 1.03549 cumulative IPC: 1.11203 (Simulation time: 0 hr 14 min 28 sec) 
Heartbeat CPU  0 instructions:  427000003 cycles:  344685491 heartbeat IPC: 1.03582 cumulative IPC: 1.11178 (Simulation time: 0 hr 14 min 30 sec) 
Heartbeat CPU  0 instructions:  428000000 cycles:  345652375 heartbeat IPC: 1.03425 cumulative IPC: 1.11153 (Simulation time: 0 hr 14 min 32 sec) 
Heartbeat CPU  0 instructions:  429000000 cycles:  346615556 heartbeat IPC: 1.03823 cumulative IPC: 1.11129 (Simulation time: 0 hr 14 min 35 sec) 
Heartbeat CPU  0 instructions:  430000003 cycles:  347578664 heartbeat IPC: 1.03831 cumulative IPC: 1.11105 (Simulation time: 0 hr 14 min 37 sec) 
Heartbeat CPU  0 instructions:  431000003 cycles:  348542594 heartbeat IPC: 1.03742 cumulative IPC: 1.11082 (Simulation time: 0 hr 14 min 39 sec) 
Heartbeat CPU  0 instructions:  432000000 cycles:  349506686 heartbeat IPC: 1.03724 cumulative IPC: 1.11058 (Simulation time: 0 hr 14 min 41 sec) 
Heartbeat CPU  0 instructions:  433000001 cycles:  350471479 heartbeat IPC: 1.03649 cumulative IPC: 1.11034 (Simulation time: 0 hr 14 min 43 sec) 
Heartbeat CPU  0 instructions:  434000003 cycles:  351436245 heartbeat IPC: 1.03652 cumulative IPC: 1.11010 (Simulation time: 0 hr 14 min 45 sec) 
Heartbeat CPU  0 instructions:  435000001 cycles:  352401398 heartbeat IPC: 1.03610 cumulative IPC: 1.10987 (Simulation time: 0 hr 14 min 48 sec) 
Heartbeat CPU  0 instructions:  436000000 cycles:  353367417 heartbeat IPC: 1.03518 cumulative IPC: 1.10963 (Simulation time: 0 hr 14 min 50 sec) 
Heartbeat CPU  0 instructions:  437000000 cycles:  354333244 heartbeat IPC: 1.03538 cumulative IPC: 1.10939 (Simulation time: 0 hr 14 min 52 sec) 
Heartbeat CPU  0 instructions:  438000001 cycles:  355295879 heartbeat IPC: 1.03882 cumulative IPC: 1.10917 (Simulation time: 0 hr 14 min 54 sec) 
Heartbeat CPU  0 instructions:  439000002 cycles:  356259076 heartbeat IPC: 1.03821 cumulative IPC: 1.10895 (Simulation time: 0 hr 14 min 56 sec) 
Heartbeat CPU  0 instructions:  440000000 cycles:  357225001 heartbeat IPC: 1.03527 cumulative IPC: 1.10871 (Simulation time: 0 hr 14 min 59 sec) 
Heartbeat CPU  0 instructions:  441000001 cycles:  358187852 heartbeat IPC: 1.03858 cumulative IPC: 1.10849 (Simulation time: 0 hr 15 min 1 sec) 
Heartbeat CPU  0 instructions:  442000001 cycles:  359152105 heartbeat IPC: 1.03707 cumulative IPC: 1.10827 (Simulation time: 0 hr 15 min 3 sec) 
Heartbeat CPU  0 instructions:  443000002 cycles:  360115864 heartbeat IPC: 1.03760 cumulative IPC: 1.10805 (Simulation time: 0 hr 15 min 5 sec) 
Heartbeat CPU  0 instructions:  444000000 cycles:  361081473 heartbeat IPC: 1.03561 cumulative IPC: 1.10783 (Simulation time: 0 hr 15 min 7 sec) 
Heartbeat CPU  0 instructions:  445000001 cycles:  362048646 heartbeat IPC: 1.03394 cumulative IPC: 1.10760 (Simulation time: 0 hr 15 min 10 sec) 
Heartbeat CPU  0 instructions:  446000001 cycles:  363013288 heartbeat IPC: 1.03665 cumulative IPC: 1.10738 (Simulation time: 0 hr 15 min 12 sec) 
Heartbeat CPU  0 instructions:  447000002 cycles:  363977582 heartbeat IPC: 1.03703 cumulative IPC: 1.10716 (Simulation time: 0 hr 15 min 14 sec) 
Heartbeat CPU  0 instructions:  448000000 cycles:  364943340 heartbeat IPC: 1.03545 cumulative IPC: 1.10694 (Simulation time: 0 hr 15 min 16 sec) 
Heartbeat CPU  0 instructions:  449000003 cycles:  365905041 heartbeat IPC: 1.03983 cumulative IPC: 1.10674 (Simulation time: 0 hr 15 min 18 sec) 
Heartbeat CPU  0 instructions:  450000002 cycles:  366871817 heartbeat IPC: 1.03436 cumulative IPC: 1.10652 (Simulation time: 0 hr 15 min 21 sec) 
Heartbeat CPU  0 instructions:  451000000 cycles:  367837241 heartbeat IPC: 1.03581 cumulative IPC: 1.10630 (Simulation time: 0 hr 15 min 23 sec) 
Heartbeat CPU  0 instructions:  452000000 cycles:  368799817 heartbeat IPC: 1.03888 cumulative IPC: 1.10610 (Simulation time: 0 hr 15 min 25 sec) 
Heartbeat CPU  0 instructions:  453000003 cycles:  369764795 heartbeat IPC: 1.03630 cumulative IPC: 1.10589 (Simulation time: 0 hr 15 min 27 sec) 
Heartbeat CPU  0 instructions:  454000000 cycles:  370727631 heartbeat IPC: 1.03860 cumulative IPC: 1.10568 (Simulation time: 0 hr 15 min 29 sec) 
Heartbeat CPU  0 instructions:  455000002 cycles:  371691867 heartbeat IPC: 1.03709 cumulative IPC: 1.10548 (Simulation time: 0 hr 15 min 32 sec) 
Heartbeat CPU  0 instructions:  456000000 cycles:  372655260 heartbeat IPC: 1.03800 cumulative IPC: 1.10528 (Simulation time: 0 hr 15 min 34 sec) 
Heartbeat CPU  0 instructions:  457000000 cycles:  373621476 heartbeat IPC: 1.03497 cumulative IPC: 1.10506 (Simulation time: 0 hr 15 min 36 sec) 
Heartbeat CPU  0 instructions:  458000002 cycles:  374586402 heartbeat IPC: 1.03635 cumulative IPC: 1.10486 (Simulation time: 0 hr 15 min 38 sec) 
Heartbeat CPU  0 instructions:  459000003 cycles:  375549428 heartbeat IPC: 1.03839 cumulative IPC: 1.10466 (Simulation time: 0 hr 15 min 40 sec) 
Heartbeat CPU  0 instructions:  460000000 cycles:  376498177 heartbeat IPC: 1.05402 cumulative IPC: 1.10452 (Simulation time: 0 hr 15 min 42 sec) 
Heartbeat CPU  0 instructions:  461000000 cycles:  377396217 heartbeat IPC: 1.11354 cumulative IPC: 1.10454 (Simulation time: 0 hr 15 min 44 sec) 
Heartbeat CPU  0 instructions:  462000000 cycles:  378293624 heartbeat IPC: 1.11432 cumulative IPC: 1.10457 (Simulation time: 0 hr 15 min 46 sec) 
Heartbeat CPU  0 instructions:  463000001 cycles:  379190710 heartbeat IPC: 1.11472 cumulative IPC: 1.10460 (Simulation time: 0 hr 15 min 48 sec) 
Heartbeat CPU  0 instructions:  464000000 cycles:  380087103 heartbeat IPC: 1.11558 cumulative IPC: 1.10462 (Simulation time: 0 hr 15 min 50 sec) 
Heartbeat CPU  0 instructions:  465000002 cycles:  380987123 heartbeat IPC: 1.11109 cumulative IPC: 1.10464 (Simulation time: 0 hr 15 min 53 sec) 
Heartbeat CPU  0 instructions:  466000000 cycles:  381884522 heartbeat IPC: 1.11433 cumulative IPC: 1.10467 (Simulation time: 0 hr 15 min 55 sec) 
Heartbeat CPU  0 instructions:  467000001 cycles:  382781256 heartbeat IPC: 1.11516 cumulative IPC: 1.10470 (Simulation time: 0 hr 15 min 57 sec) 
Heartbeat CPU  0 instructions:  468000000 cycles:  383676484 heartbeat IPC: 1.11703 cumulative IPC: 1.10473 (Simulation time: 0 hr 15 min 59 sec) 
Heartbeat CPU  0 instructions:  469000003 cycles:  384566540 heartbeat IPC: 1.12353 cumulative IPC: 1.10478 (Simulation time: 0 hr 16 min 1 sec) 
Heartbeat CPU  0 instructions:  470000001 cycles:  385449589 heartbeat IPC: 1.13244 cumulative IPC: 1.10485 (Simulation time: 0 hr 16 min 3 sec) 
Heartbeat CPU  0 instructions:  471000001 cycles:  386335497 heartbeat IPC: 1.12879 cumulative IPC: 1.10492 (Simulation time: 0 hr 16 min 5 sec) 
Heartbeat CPU  0 instructions:  472000000 cycles:  387220757 heartbeat IPC: 1.12961 cumulative IPC: 1.10498 (Simulation time: 0 hr 16 min 7 sec) 
Heartbeat CPU  0 instructions:  473000002 cycles:  388106536 heartbeat IPC: 1.12895 cumulative IPC: 1.10504 (Simulation time: 0 hr 16 min 9 sec) 
Heartbeat CPU  0 instructions:  474000001 cycles:  388989502 heartbeat IPC: 1.13255 cumulative IPC: 1.10512 (Simulation time: 0 hr 16 min 11 sec) 
Heartbeat CPU  0 instructions:  475000002 cycles:  389874783 heartbeat IPC: 1.12959 cumulative IPC: 1.10518 (Simulation time: 0 hr 16 min 13 sec) 
Heartbeat CPU  0 instructions:  476000000 cycles:  390760716 heartbeat IPC: 1.12875 cumulative IPC: 1.10524 (Simulation time: 0 hr 16 min 15 sec) 
Heartbeat CPU  0 instructions:  477000002 cycles:  391646914 heartbeat IPC: 1.12842 cumulative IPC: 1.10530 (Simulation time: 0 hr 16 min 17 sec) 
Heartbeat CPU  0 instructions:  478000000 cycles:  392541721 heartbeat IPC: 1.11756 cumulative IPC: 1.10533 (Simulation time: 0 hr 16 min 19 sec) 
Heartbeat CPU  0 instructions:  479000002 cycles:  393438126 heartbeat IPC: 1.11557 cumulative IPC: 1.10536 (Simulation time: 0 hr 16 min 21 sec) 
Heartbeat CPU  0 instructions:  480000000 cycles:  394332619 heartbeat IPC: 1.11795 cumulative IPC: 1.10539 (Simulation time: 0 hr 16 min 23 sec) 
Heartbeat CPU  0 instructions:  481000003 cycles:  395232894 heartbeat IPC: 1.11077 cumulative IPC: 1.10541 (Simulation time: 0 hr 16 min 25 sec) 
Heartbeat CPU  0 instructions:  482000003 cycles:  396124852 heartbeat IPC: 1.12113 cumulative IPC: 1.10545 (Simulation time: 0 hr 16 min 27 sec) 
Heartbeat CPU  0 instructions:  483000003 cycles:  397025025 heartbeat IPC: 1.11090 cumulative IPC: 1.10546 (Simulation time: 0 hr 16 min 29 sec) 
Heartbeat CPU  0 instructions:  484000000 cycles:  397917076 heartbeat IPC: 1.12101 cumulative IPC: 1.10550 (Simulation time: 0 hr 16 min 31 sec) 
Heartbeat CPU  0 instructions:  485000002 cycles:  398810399 heartbeat IPC: 1.11942 cumulative IPC: 1.10554 (Simulation time: 0 hr 16 min 33 sec) 
Heartbeat CPU  0 instructions:  486000000 cycles:  399722038 heartbeat IPC: 1.09692 cumulative IPC: 1.10551 (Simulation time: 0 hr 16 min 35 sec) 
Heartbeat CPU  0 instructions:  487000000 cycles:  400853129 heartbeat IPC: 0.88410 cumulative IPC: 1.10480 (Simulation time: 0 hr 16 min 38 sec) 
Heartbeat CPU  0 instructions:  488000000 cycles:  401973860 heartbeat IPC: 0.89227 cumulative IPC: 1.10412 (Simulation time: 0 hr 16 min 40 sec) 
Heartbeat CPU  0 instructions:  489000000 cycles:  403137793 heartbeat IPC: 0.85916 cumulative IPC: 1.10331 (Simulation time: 0 hr 16 min 43 sec) 
Heartbeat CPU  0 instructions:  490000003 cycles:  404303620 heartbeat IPC: 0.85776 cumulative IPC: 1.10250 (Simulation time: 0 hr 16 min 45 sec) 
Heartbeat CPU  0 instructions:  491000003 cycles:  405423876 heartbeat IPC: 0.89265 cumulative IPC: 1.10184 (Simulation time: 0 hr 16 min 48 sec) 
Heartbeat CPU  0 instructions:  492000000 cycles:  406538639 heartbeat IPC: 0.89705 cumulative IPC: 1.10120 (Simulation time: 0 hr 16 min 50 sec) 
Heartbeat CPU  0 instructions:  493000001 cycles:  407658519 heartbeat IPC: 0.89295 cumulative IPC: 1.10055 (Simulation time: 0 hr 16 min 52 sec) 
Heartbeat CPU  0 instructions:  494000000 cycles:  408785612 heartbeat IPC: 0.88724 cumulative IPC: 1.09988 (Simulation time: 0 hr 16 min 55 sec) 
Heartbeat CPU  0 instructions:  495000000 cycles:  409933148 heartbeat IPC: 0.87143 cumulative IPC: 1.09915 (Simulation time: 0 hr 16 min 57 sec) 
Heartbeat CPU  0 instructions:  496000000 cycles:  411076159 heartbeat IPC: 0.87488 cumulative IPC: 1.09844 (Simulation time: 0 hr 17 min 0 sec) 
Heartbeat CPU  0 instructions:  497000002 cycles:  412223836 heartbeat IPC: 0.87133 cumulative IPC: 1.09772 (Simulation time: 0 hr 17 min 2 sec) 
Heartbeat CPU  0 instructions:  498000001 cycles:  413366878 heartbeat IPC: 0.87486 cumulative IPC: 1.09701 (Simulation time: 0 hr 17 min 5 sec) 
Heartbeat CPU  0 instructions:  499000000 cycles:  414501804 heartbeat IPC: 0.88111 cumulative IPC: 1.09634 (Simulation time: 0 hr 17 min 7 sec) 
Heartbeat CPU  0 instructions:  500000000 cycles:  415617418 heartbeat IPC: 0.89637 cumulative IPC: 1.09573 (Simulation time: 0 hr 17 min 10 sec) 
Heartbeat CPU  0 instructions:  501000003 cycles:  416748844 heartbeat IPC: 0.88384 cumulative IPC: 1.09507 (Simulation time: 0 hr 17 min 12 sec) 
Heartbeat CPU  0 instructions:  502000002 cycles:  417888592 heartbeat IPC: 0.87739 cumulative IPC: 1.09440 (Simulation time: 0 hr 17 min 15 sec) 
Heartbeat CPU  0 instructions:  503000000 cycles:  419014284 heartbeat IPC: 0.88834 cumulative IPC: 1.09377 (Simulation time: 0 hr 17 min 17 sec) 
Heartbeat CPU  0 instructions:  504000000 cycles:  420140108 heartbeat IPC: 0.88824 cumulative IPC: 1.09314 (Simulation time: 0 hr 17 min 20 sec) 
Heartbeat CPU  0 instructions:  505000000 cycles:  421249591 heartbeat IPC: 0.90132 cumulative IPC: 1.09257 (Simulation time: 0 hr 17 min 22 sec) 
Heartbeat CPU  0 instructions:  506000003 cycles:  422399296 heartbeat IPC: 0.86979 cumulative IPC: 1.09188 (Simulation time: 0 hr 17 min 24 sec) 
Heartbeat CPU  0 instructions:  507000002 cycles:  423535231 heartbeat IPC: 0.88033 cumulative IPC: 1.09124 (Simulation time: 0 hr 17 min 27 sec) 
Heartbeat CPU  0 instructions:  508000000 cycles:  424647109 heartbeat IPC: 0.89938 cumulative IPC: 1.09067 (Simulation time: 0 hr 17 min 29 sec) 
Heartbeat CPU  0 instructions:  509000001 cycles:  425780097 heartbeat IPC: 0.88262 cumulative IPC: 1.09004 (Simulation time: 0 hr 17 min 32 sec) 
Heartbeat CPU  0 instructions:  510000000 cycles:  426923653 heartbeat IPC: 0.87446 cumulative IPC: 1.08938 (Simulation time: 0 hr 17 min 34 sec) 
Heartbeat CPU  0 instructions:  511000001 cycles:  428066049 heartbeat IPC: 0.87535 cumulative IPC: 1.08873 (Simulation time: 0 hr 17 min 37 sec) 
Heartbeat CPU  0 instructions:  512000000 cycles:  429238864 heartbeat IPC: 0.85265 cumulative IPC: 1.08800 (Simulation time: 0 hr 17 min 39 sec) 
Heartbeat CPU  0 instructions:  513000000 cycles:  430380304 heartbeat IPC: 0.87609 cumulative IPC: 1.08737 (Simulation time: 0 hr 17 min 42 sec) 
Heartbeat CPU  0 instructions:  514000000 cycles:  431532035 heartbeat IPC: 0.86826 cumulative IPC: 1.08670 (Simulation time: 0 hr 17 min 44 sec) 
Heartbeat CPU  0 instructions:  515000003 cycles:  432675362 heartbeat IPC: 0.87464 cumulative IPC: 1.08607 (Simulation time: 0 hr 17 min 46 sec) 
Heartbeat CPU  0 instructions:  516000000 cycles:  433800192 heartbeat IPC: 0.88902 cumulative IPC: 1.08549 (Simulation time: 0 hr 17 min 49 sec) 
Heartbeat CPU  0 instructions:  517000001 cycles:  434922344 heartbeat IPC: 0.89115 cumulative IPC: 1.08492 (Simulation time: 0 hr 17 min 51 sec) 
Heartbeat CPU  0 instructions:  518000001 cycles:  436033098 heartbeat IPC: 0.90029 cumulative IPC: 1.08439 (Simulation time: 0 hr 17 min 54 sec) 
Heartbeat CPU  0 instructions:  519000003 cycles:  437143020 heartbeat IPC: 0.90097 cumulative IPC: 1.08386 (Simulation time: 0 hr 17 min 56 sec) 
Heartbeat CPU  0 instructions:  520000000 cycles:  438278787 heartbeat IPC: 0.88046 cumulative IPC: 1.08327 (Simulation time: 0 hr 17 min 59 sec) 
Heartbeat CPU  0 instructions:  521000002 cycles:  439415784 heartbeat IPC: 0.87951 cumulative IPC: 1.08267 (Simulation time: 0 hr 18 min 1 sec) 
Heartbeat CPU  0 instructions:  522000002 cycles:  440546266 heartbeat IPC: 0.88458 cumulative IPC: 1.08210 (Simulation time: 0 hr 18 min 4 sec) 
Heartbeat CPU  0 instructions:  523000001 cycles:  441688363 heartbeat IPC: 0.87558 cumulative IPC: 1.08150 (Simulation time: 0 hr 18 min 6 sec) 
Heartbeat CPU  0 instructions:  524000000 cycles:  442706408 heartbeat IPC: 0.98227 cumulative IPC: 1.08124 (Simulation time: 0 hr 18 min 8 sec) 
Heartbeat CPU  0 instructions:  525000000 cycles:  443583489 heartbeat IPC: 1.14015 cumulative IPC: 1.08137 (Simulation time: 0 hr 18 min 11 sec) 
Heartbeat CPU  0 instructions:  526000001 cycles:  444473661 heartbeat IPC: 1.12338 cumulative IPC: 1.08146 (Simulation time: 0 hr 18 min 13 sec) 
Heartbeat CPU  0 instructions:  527000001 cycles:  445362242 heartbeat IPC: 1.12539 cumulative IPC: 1.08156 (Simulation time: 0 hr 18 min 15 sec) 
Heartbeat CPU  0 instructions:  528000000 cycles:  446247618 heartbeat IPC: 1.12946 cumulative IPC: 1.08167 (Simulation time: 0 hr 18 min 17 sec) 
Heartbeat CPU  0 instructions:  529000003 cycles:  447130342 heartbeat IPC: 1.13286 cumulative IPC: 1.08178 (Simulation time: 0 hr 18 min 19 sec) 
[...]
Heartbeat CPU  0 instructions:  548000000 cycles:  463740138 heartbeat IPC: 1.13280 cumulative IPC: 1.08428 (Simulation time: 0 hr 19 min 0 sec) 
Heartbeat CPU  0 instructions:  549000003 cycles:  464626461 heartbeat IPC: 1.12826 cumulative IPC: 1.08438 (Simulation time: 0 hr 19 min 2 sec) 
Heartbeat CPU  0 instructions:  550000000 cycles:  465504628 heartbeat IPC: 1.13873 cumulative IPC: 1.08449 (Simulation time: 0 hr 19 min 4 sec) 
Heartbeat CPU  0 instructions:  551000000 cycles:  466381554 heartbeat IPC: 1.14035 cumulative IPC: 1.08461 (Simulation time: 0 hr 19 min 6 sec) 
Heartbeat CPU  0 instructions:  552000000 cycles:  467256740 heartbeat IPC: 1.14261 cumulative IPC: 1.08473 (Simulation time: 0 hr 19 min 8 sec) 
Heartbeat CPU  0 instructions:  553000000 cycles:  468132820 heartbeat IPC: 1.14145 cumulative IPC: 1.08485 (Simulation time: 0 hr 19 min 10 sec) 
Heartbeat CPU  0 instructions:  554000000 cycles:  468985100 heartbeat IPC: 1.17332 cumulative IPC: 1.08503 (Simulation time: 0 hr 19 min 13 sec) 
Heartbeat CPU  0 instructions:  555000002 cycles:  469853930 heartbeat IPC: 1.15098 cumulative IPC: 1.08517 (Simulation time: 0 hr 19 min 15 sec) 
Heartbeat CPU  0 instructions:  556000000 cycles:  470728750 heartbeat IPC: 1.14309 cumulative IPC: 1.08529 (Simulation time: 0 hr 19 min 17 sec) 
Heartbeat CPU  0 instructions:  557000000 cycles:  471611701 heartbeat IPC: 1.13257 cumulative IPC: 1.08539 (Simulation time: 0 hr 19 min 19 sec) 
Heartbeat CPU  0 instructions:  558000000 cycles:  472494157 heartbeat IPC: 1.13320 cumulative IPC: 1.08549 (Simulation time: 0 hr 19 min 21 sec) 
Heartbeat CPU  0 instructions:  559000000 cycles:  473376442 heartbeat IPC: 1.13342 cumulative IPC: 1.08559 (Simulation time: 0 hr 19 min 23 sec) 
Heartbeat CPU  0 instructions:  560000000 cycles:  474259340 heartbeat IPC: 1.13263 cumulative IPC: 1.08568 (Simulation time: 0 hr 19 min 25 sec) 
Heartbeat CPU  0 instructions:  561000001 cycles:  475135361 heartbeat IPC: 1.14153 cumulative IPC: 1.08580 (Simulation time: 0 hr 19 min 28 sec) 
Heartbeat CPU  0 instructions:  562000003 cycles:  476011462 heartbeat IPC: 1.14142 cumulative IPC: 1.08591 (Simulation time: 0 hr 19 min 30 sec) 
Heartbeat CPU  0 instructions:  563000000 cycles:  476888497 heartbeat IPC: 1.14020 cumulative IPC: 1.08603 (Simulation time: 0 hr 19 min 32 sec) 
Heartbeat CPU  0 instructions:  564000000 cycles:  477754316 heartbeat IPC: 1.15498 cumulative IPC: 1.08617 (Simulation time: 0 hr 19 min 34 sec) 
Heartbeat CPU  0 instructions:  565000003 cycles:  478599283 heartbeat IPC: 1.18348 cumulative IPC: 1.08636 (Simulation time: 0 hr 19 min 36 sec) 
Heartbeat CPU  0 instructions:  566000003 cycles:  479483105 heartbeat IPC: 1.13145 cumulative IPC: 1.08645 (Simulation time: 0 hr 19 min 38 sec) 
Heartbeat CPU  0 instructions:  567000001 cycles:  480361646 heartbeat IPC: 1.13825 cumulative IPC: 1.08656 (Simulation time: 0 hr 19 min 40 sec) 
Heartbeat CPU  0 instructions:  568000000 cycles:  481239095 heartbeat IPC: 1.13967 cumulative IPC: 1.08666 (Simulation time: 0 hr 19 min 42 sec) 
Heartbeat CPU  0 instructions:  569000002 cycles:  482121589 heartbeat IPC: 1.13315 cumulative IPC: 1.08676 (Simulation time: 0 hr 19 min 45 sec) 
Heartbeat CPU  0 instructions:  570000000 cycles:  483000227 heartbeat IPC: 1.13812 cumulative IPC: 1.08686 (Simulation time: 0 hr 19 min 47 sec) 
Heartbeat CPU  0 instructions:  571000002 cycles:  483881126 heartbeat IPC: 1.13521 cumulative IPC: 1.08696 (Simulation time: 0 hr 19 min 49 sec) 
Heartbeat CPU  0 instructions:  572000000 cycles:  484756772 heartbeat IPC: 1.14201 cumulative IPC: 1.08707 (Simulation time: 0 hr 19 min 51 sec) 
Heartbeat CPU  0 instructions:  573000001 cycles:  485630465 heartbeat IPC: 1.14457 cumulative IPC: 1.08719 (Simulation time: 0 hr 19 min 53 sec) 
Heartbeat CPU  0 instructions:  574000003 cycles:  486506154 heartbeat IPC: 1.14196 cumulative IPC: 1.08730 (Simulation time: 0 hr 19 min 55 sec) 
Heartbeat CPU  0 instructions:  575000000 cycles:  487349412 heartbeat IPC: 1.18587 cumulative IPC: 1.08749 (Simulation time: 0 hr 19 min 57 sec) 
Heartbeat CPU  0 instructions:  576000000 cycles:  488219389 heartbeat IPC: 1.14946 cumulative IPC: 1.08761 (Simulation time: 0 hr 19 min 59 sec) 
Heartbeat CPU  0 instructions:  577000000 cycles:  489095873 heartbeat IPC: 1.14092 cumulative IPC: 1.08772 (Simulation time: 0 hr 20 min 2 sec) 
Heartbeat CPU  0 instructions:  578000002 cycles:  489977383 heartbeat IPC: 1.13442 cumulative IPC: 1.08781 (Simulation time: 0 hr 20 min 4 sec) 
Heartbeat CPU  0 instructions:  579000001 cycles:  490861017 heartbeat IPC: 1.13169 cumulative IPC: 1.08790 (Simulation time: 0 hr 20 min 6 sec) 
Heartbeat CPU  0 instructions:  580000000 cycles:  491746527 heartbeat IPC: 1.12929 cumulative IPC: 1.08798 (Simulation time: 0 hr 20 min 8 sec) 
Heartbeat CPU  0 instructions:  581000002 cycles:  492625686 heartbeat IPC: 1.13745 cumulative IPC: 1.08808 (Simulation time: 0 hr 20 min 10 sec) 
Heartbeat CPU  0 instructions:  582000000 cycles:  493500982 heartbeat IPC: 1.14247 cumulative IPC: 1.08819 (Simulation time: 0 hr 20 min 12 sec) 
Heartbeat CPU  0 instructions:  583000003 cycles:  494374617 heartbeat IPC: 1.14465 cumulative IPC: 1.08830 (Simulation time: 0 hr 20 min 14 sec) 
Heartbeat CPU  0 instructions:  584000000 cycles:  495248579 heartbeat IPC: 1.14421 cumulative IPC: 1.08841 (Simulation time: 0 hr 20 min 17 sec) 
Heartbeat CPU  0 instructions:  585000002 cycles:  496110607 heartbeat IPC: 1.16006 cumulative IPC: 1.08855 (Simulation time: 0 hr 20 min 19 sec) 
Heartbeat CPU  0 instructions:  586000003 cycles:  496956443 heartbeat IPC: 1.18226 cumulative IPC: 1.08873 (Simulation time: 0 hr 20 min 21 sec) 
Heartbeat CPU  0 instructions:  587000001 cycles:  497844445 heartbeat IPC: 1.12612 cumulative IPC: 1.08880 (Simulation time: 0 hr 20 min 23 sec) 
Heartbeat CPU  0 instructions:  588000000 cycles:  498721562 heartbeat IPC: 1.14010 cumulative IPC: 1.08890 (Simulation time: 0 hr 20 min 25 sec) 
Heartbeat CPU  0 instructions:  589000002 cycles:  499606357 heartbeat IPC: 1.13021 cumulative IPC: 1.08898 (Simulation time: 0 hr 20 min 27 sec) 
Heartbeat CPU  0 instructions:  590000001 cycles:  500489198 heartbeat IPC: 1.13271 cumulative IPC: 1.08907 (Simulation time: 0 hr 20 min 29 sec) 
Heartbeat CPU  0 instructions:  591000002 cycles:  501375951 heartbeat IPC: 1.12771 cumulative IPC: 1.08914 (Simulation time: 0 hr 20 min 31 sec) 
Heartbeat CPU  0 instructions:  592000000 cycles:  502251228 heartbeat IPC: 1.14249 cumulative IPC: 1.08925 (Simulation time: 0 hr 20 min 34 sec) 
Heartbeat CPU  0 instructions:  593000003 cycles:  503128735 heartbeat IPC: 1.13960 cumulative IPC: 1.08935 (Simulation time: 0 hr 20 min 36 sec) 
Heartbeat CPU  0 instructions:  594000000 cycles:  504006041 heartbeat IPC: 1.13985 cumulative IPC: 1.08944 (Simulation time: 0 hr 20 min 38 sec) 
Heartbeat CPU  0 instructions:  595000003 cycles:  504880498 heartbeat IPC: 1.14357 cumulative IPC: 1.08955 (Simulation time: 0 hr 20 min 40 sec) 
Heartbeat CPU  0 instructions:  596000000 cycles:  505723383 heartbeat IPC: 1.18640 cumulative IPC: 1.08973 (Simulation time: 0 hr 20 min 42 sec) 
Heartbeat CPU  0 instructions:  597000001 cycles:  506592253 heartbeat IPC: 1.15092 cumulative IPC: 1.08984 (Simulation time: 0 hr 20 min 44 sec) 
Heartbeat CPU  0 instructions:  598000002 cycles:  507470170 heartbeat IPC: 1.13906 cumulative IPC: 1.08994 (Simulation time: 0 hr 20 min 46 sec) 
Heartbeat CPU  0 instructions:  599000000 cycles:  508346697 heartbeat IPC: 1.14086 cumulative IPC: 1.09004 (Simulation time: 0 hr 20 min 48 sec) 
Heartbeat CPU  0 instructions:  600000000 cycles:  509228191 heartbeat IPC: 1.13444 cumulative IPC: 1.09012 (Simulation time: 0 hr 20 min 51 sec) 
Finished CPU 0 instructions: 500000001 cycles: 458664725 cumulative IPC: 1.09012 (Simulation time: 0 hr 20 min 51 sec) 

ChampSim completed all CPUs

[ROI Statistics]
Core_0_instructions 500000001
Core_0_cycles 458664725
Core_0_IPC 1.09012

Core_0_branch_prediction_accuracy 99.14585
Core_0_branch_MPKI 0.18961
Core_0_average_ROB_occupancy_at_mispredict 243.91200

Core_0_L1D_total_access 146207154
Core_0_L1D_total_hit 141356128
Core_0_L1D_total_miss 4851026
Core_0_L1D_loads 135552376
Core_0_L1D_load_hit 132092245
Core_0_L1D_load_miss 3460131
Core_0_L1D_RFOs 10654778
Core_0_L1D_RFO_hit 9263883
Core_0_L1D_RFO_miss 1390895
Core_0_L1D_prefetches 0
Core_0_L1D_prefetch_hit 0
Core_0_L1D_prefetch_miss 0
Core_0_L1D_writebacks 0
Core_0_L1D_writeback_hit 0
Core_0_L1D_writeback_miss 0
Core_0_L1D_prefetch_requested 0
Core_0_L1D_prefetch_dropped 0
Core_0_L1D_prefetch_issued 0
Core_0_L1D_prefetch_filled 0
Core_0_L1D_prefetch_useful 0
Core_0_L1D_prefetch_useless 0
Core_0_L1D_prefetch_late 0
Core_0_L1D_average_miss_latency 77.60412

Core_0_L1D_rq_access 196251810
Core_0_L1D_rq_forward 0
Core_0_L1D_rq_merged 59718450
Core_0_L1D_rq_to_cache 136533360
Core_0_L1D_rq_full 0

Core_0_L1D_wq_access 15647860
Core_0_L1D_wq_forward 0
Core_0_L1D_wq_merged 1
Core_0_L1D_wq_to_cache 15647859
Core_0_L1D_wq_full 17095

Core_0_L1D_pq_access 0
Core_0_L1D_pq_forward 0
Core_0_L1D_pq_merged 0
Core_0_L1D_pq_to_cache 0
Core_0_L1D_pq_full 0

Core_0_L1D_acc_epochs 491618
Core_0_L1D_acc_level_0 491618
Core_0_L1D_acc_level_1 0
Core_0_L1D_acc_level_2 0
Core_0_L1D_acc_level_3 0
Core_0_L1D_acc_level_4 0
Core_0_L1D_acc_level_5 0
Core_0_L1D_acc_level_6 0
Core_0_L1D_acc_level_7 0
Core_0_L1D_acc_level_8 0
Core_0_L1D_acc_level_9 0

Core_0_L1I_total_access 116428996
Core_0_L1I_total_hit 116428620
Core_0_L1I_total_miss 376
Core_0_L1I_loads 116428996
Core_0_L1I_load_hit 116428620
Core_0_L1I_load_miss 376
Core_0_L1I_RFOs 0
Core_0_L1I_RFO_hit 0
Core_0_L1I_RFO_miss 0
Core_0_L1I_prefetches 0
Core_0_L1I_prefetch_hit 0
Core_0_L1I_prefetch_miss 0
Core_0_L1I_writebacks 0
Core_0_L1I_writeback_hit 0
Core_0_L1I_writeback_miss 0
Core_0_L1I_prefetch_requested 0
Core_0_L1I_prefetch_dropped 0
Core_0_L1I_prefetch_issued 0
Core_0_L1I_prefetch_filled 0
Core_0_L1I_prefetch_useful 0
Core_0_L1I_prefetch_useless 0
Core_0_L1I_prefetch_late 0
Core_0_L1I_average_miss_latency 157.19947

Core_0_L1I_rq_access 500000000
Core_0_L1I_rq_forward 0
Core_0_L1I_rq_merged 383570246
Core_0_L1I_rq_to_cache 116429754
Core_0_L1I_rq_full 0

Core_0_L1I_wq_access 0
Core_0_L1I_wq_forward 0
Core_0_L1I_wq_merged 0
Core_0_L1I_wq_to_cache 0
Core_0_L1I_wq_full 0

Core_0_L1I_pq_access 0
Core_0_L1I_pq_forward 0
Core_0_L1I_pq_merged 0
Core_0_L1I_pq_to_cache 0
Core_0_L1I_pq_full 0

Core_0_L1I_acc_epochs 491618
Core_0_L1I_acc_level_0 491618
Core_0_L1I_acc_level_1 0
Core_0_L1I_acc_level_2 0
Core_0_L1I_acc_level_3 0
Core_0_L1I_acc_level_4 0
Core_0_L1I_acc_level_5 0
Core_0_L1I_acc_level_6 0
Core_0_L1I_acc_level_7 0
Core_0_L1I_acc_level_8 0
Core_0_L1I_acc_level_9 0

Core_0_L2C_total_access 9974864
Core_0_L2C_total_hit 6321467
Core_0_L2C_total_miss 3653397
Core_0_L2C_loads 3460472
Core_0_L2C_load_hit 2653557
Core_0_L2C_load_miss 806915
Core_0_L2C_RFOs 1390871
Core_0_L2C_RFO_hit 362313
Core_0_L2C_RFO_miss 1028558
Core_0_L2C_prefetches 3464809
Core_0_L2C_prefetch_hit 1646981
Core_0_L2C_prefetch_miss 1817828
Core_0_L2C_writebacks 1658712
Core_0_L2C_writeback_hit 1658616
Core_0_L2C_writeback_miss 96
Core_0_L2C_prefetch_requested 22025822
Core_0_L2C_prefetch_dropped 20261
Core_0_L2C_prefetch_issued 22005561
Core_0_L2C_prefetch_filled 2348841
Core_0_L2C_prefetch_useful 2337834
Core_0_L2C_prefetch_useless 10988
Core_0_L2C_prefetch_late 4426
Core_0_L2C_average_miss_latency 101.39941

Core_0_L2C_rq_access 4851402
Core_0_L2C_rq_forward 0
Core_0_L2C_rq_merged 0
Core_0_L2C_rq_to_cache 4851343
Core_0_L2C_rq_full 0

Core_0_L2C_wq_access 1658712
Core_0_L2C_wq_forward 165
Core_0_L2C_wq_merged 0
Core_0_L2C_wq_to_cache 1658712
Core_0_L2C_wq_full 0

Core_0_L2C_pq_access 22005561
Core_0_L2C_pq_forward 0
Core_0_L2C_pq_merged 137677
Core_0_L2C_pq_to_cache 21867778
Core_0_L2C_pq_full 0

Core_0_L2C_acc_epochs 491618
Core_0_L2C_acc_level_0 39807
Core_0_L2C_acc_level_1 8709
Core_0_L2C_acc_level_2 8887
Core_0_L2C_acc_level_3 5197
Core_0_L2C_acc_level_4 13659
Core_0_L2C_acc_level_5 15694
Core_0_L2C_acc_level_6 10195
Core_0_L2C_acc_level_7 21245
Core_0_L2C_acc_level_8 47027
Core_0_L2C_acc_level_9 321198

Core_0_LLC_total_access 18318714
Core_0_LLC_total_hit 13962572
Core_0_LLC_total_miss 4356142
Core_0_LLC_loads 802541
Core_0_LLC_load_hit 722923
Core_0_LLC_load_miss 79618
Core_0_LLC_RFOs 1028553
Core_0_LLC_RFO_hit 42888
Core_0_LLC_RFO_miss 985665
Core_0_LLC_prefetches 15378887
Core_0_LLC_prefetch_hit 12832978
Core_0_LLC_prefetch_miss 2545909
Core_0_LLC_writebacks 1108733
Core_0_LLC_writeback_hit 363783
Core_0_LLC_writeback_miss 744950
Core_0_LLC_prefetch_requested 0
Core_0_LLC_prefetch_dropped 0
Core_0_LLC_prefetch_issued 0
Core_0_LLC_prefetch_filled 3209546
Core_0_LLC_prefetch_useful 969870
Core_0_LLC_prefetch_useless 2220613
Core_0_LLC_prefetch_late 2139
Core_0_LLC_average_miss_latency 192.92310

Core_0_LLC_rq_access 1831094
Core_0_LLC_rq_forward 0
Core_0_LLC_rq_merged 0
Core_0_LLC_rq_to_cache 1831094
Core_0_LLC_rq_full 0

Core_0_LLC_wq_access 1108733
Core_0_LLC_wq_forward 1
Core_0_LLC_wq_merged 0
Core_0_LLC_wq_to_cache 1108733
Core_0_LLC_wq_full 0

Core_0_LLC_pq_access 19721983
Core_0_LLC_pq_forward 0
Core_0_LLC_pq_merged 5507
Core_0_LLC_pq_to_cache 19716475
Core_0_LLC_pq_full 0

Core_0_LLC_acc_epochs 497294
Core_0_LLC_acc_level_0 85714
Core_0_LLC_acc_level_1 69689
Core_0_LLC_acc_level_2 150387
Core_0_LLC_acc_level_3 77607
Core_0_LLC_acc_level_4 30240
Core_0_LLC_acc_level_5 30874
Core_0_LLC_acc_level_6 16073
Core_0_LLC_acc_level_7 8109
Core_0_LLC_acc_level_8 5851
Core_0_LLC_acc_level_9 22750

Core_0_major_page_fault 0
Core_0_minor_page_fault 19121

spp.pref.total 22025822
spp.pref.at_L2 2588681
spp.pref.at_LLC 19437141

spp.depth.max 11
spp.depth.min 0
spp.depth.avg 5

spp.breadth.max 2
spp.breadth.min 0
spp.breadth.avg 0

delta_1 21088323
delta_16 861520
delta_-15 670018
delta_32 160550
delta_-47 153165
delta_31 71741
delta_-31 37512
delta_-30 31803
delta_15 20944
delta_-1 7116
delta_3 4630
delta_-8 3457
delta_46 2623
delta_2 2139
delta_-16 1954
delta_-2 1687
delta_-45 1671
delta_-44 1524
delta_-4 1500
delta_-10 1357
delta_4 1293
delta_19 1243
delta_63 1041
delta_47 938
delta_-38 890
delta_-9 774
delta_-3 724
delta_-32 566
delta_-23 557
delta_25 528
delta_22 523
delta_34 518
delta_-43 485
delta_38 409
delta_-18 402
delta_29 387
delta_-61 360
delta_-34 324
delta_41 323
delta_-46 320
delta_57 318
delta_-60 312
delta_-29 255
delta_-40 240
delta_62 236
delta_-5 219
delta_13 208
delta_9 206
delta_-41 206
delta_-12 200
delta_48 188
delta_30 180
delta_-48 178
delta_-11 176
delta_-14 155
delta_12 154
delta_50 137
delta_6 128
delta_-6 126
delta_7 90
delta_10 74
delta_18 71
delta_61 67
delta_14 55
delta_-19 53
delta_-55 45
delta_23 45
delta_-7 44
delta_-13 40
delta_35 35
delta_11 35
delta_17 35
delta_21 31
delta_-22 31
delta_-21 30
delta_-37 21
delta_-35 21
delta_-24 19
delta_28 13
delta_42 8
delta_39 4
delta_-51 1

depth_1_delta_1 3757789
depth_1_delta_16 258560
depth_1_delta_-15 202534
depth_1_delta_32 51792
depth_1_delta_-47 46504
depth_1_delta_31 41616
depth_1_delta_-30 19115
depth_1_delta_-31 18332
depth_1_delta_15 9045
depth_1_delta_-1 5824
depth_1_delta_3 3165
depth_1_delta_-8 2159
depth_1_delta_46 1919
depth_1_delta_-16 1830
depth_1_delta_-45 1552
depth_1_delta_2 1446
depth_1_delta_-2 1412
depth_1_delta_4 1258
depth_1_delta_19 1197
depth_1_delta_-10 1034
depth_1_delta_63 1007
depth_1_delta_-44 987
depth_1_delta_-4 917
depth_1_delta_47 908
depth_1_delta_-9 715
depth_1_delta_-3 618
depth_1_delta_-38 577
depth_1_delta_25 526
depth_1_delta_34 515
depth_1_delta_22 424
depth_1_delta_-32 392
depth_1_delta_29 376
depth_1_delta_-43 348
depth_1_delta_-18 344
depth_1_delta_-23 335
depth_1_delta_-46 320
depth_1_delta_-34 315
depth_1_delta_-60 312
depth_1_delta_41 298
depth_1_delta_57 276
depth_1_delta_38 260
depth_1_delta_-29 254
depth_1_delta_-61 238
depth_1_delta_-40 227
depth_1_delta_-5 213
depth_1_delta_62 208
depth_1_delta_9 206
depth_1_delta_48 188
depth_1_delta_-48 178
depth_1_delta_-11 176
depth_1_delta_13 165
depth_1_delta_-41 161
depth_1_delta_-14 155
depth_1_delta_50 129
depth_1_delta_6 128
depth_1_delta_-6 126
depth_1_delta_-12 119
depth_1_delta_30 105
depth_1_delta_7 90
depth_1_delta_61 67
depth_1_delta_12 62
depth_1_delta_10 62
depth_1_delta_-19 53
depth_1_delta_23 45
depth_1_delta_-7 44
depth_1_delta_-13 40
depth_1_delta_14 39
depth_1_delta_17 35
depth_1_delta_-55 35
depth_1_delta_-21 30
depth_1_delta_-22 30
depth_1_delta_11 29
depth_1_delta_35 29
depth_1_delta_18 21
depth_1_delta_-24 19
depth_1_delta_-37 19
depth_1_delta_21 18
depth_1_delta_-35 15
depth_1_delta_28 13
depth_1_delta_42 8
depth_1_delta_39 4
depth_1_delta_-51 1
depth_2_delta_1 3587178
depth_2_delta_16 221483
depth_2_delta_-15 167565
depth_2_delta_32 38947
depth_2_delta_-47 37253
depth_2_delta_31 17499
depth_2_delta_-30 9796
depth_2_delta_-31 9795
depth_2_delta_15 7148
depth_2_delta_3 1245
depth_2_delta_-8 1019
depth_2_delta_-1 892
depth_2_delta_46 704
depth_2_delta_2 562
depth_2_delta_-44 488
depth_2_delta_-4 404
depth_2_delta_-10 323
depth_2_delta_-38 313
depth_2_delta_-2 229
depth_2_delta_-23 222
depth_2_delta_-32 174
depth_2_delta_-43 137
depth_2_delta_-16 124
depth_2_delta_-45 119
depth_2_delta_-61 117
depth_2_delta_-3 106
depth_2_delta_38 104
depth_2_delta_22 99
depth_2_delta_12 92
depth_2_delta_-12 81
depth_2_delta_30 75
depth_2_delta_-9 58
depth_2_delta_-18 58
depth_2_delta_18 50
depth_2_delta_19 45
depth_2_delta_13 43
depth_2_delta_57 37
depth_2_delta_-41 37
depth_2_delta_4 35
depth_2_delta_47 30
depth_2_delta_63 28
depth_2_delta_62 28
depth_2_delta_41 25
depth_2_delta_21 13
depth_2_delta_14 13
depth_2_delta_-40 11
depth_2_delta_29 11
depth_2_delta_10 11
depth_2_delta_-55 9
depth_2_delta_-34 9
depth_2_delta_50 8
depth_2_delta_-35 6
depth_2_delta_11 6
depth_2_delta_-5 6
depth_2_delta_35 6
depth_2_delta_34 3
depth_2_delta_25 2
depth_2_delta_-37 2
depth_2_delta_-22 1
depth_2_delta_-29 1
depth_3_delta_1 3391447
depth_3_delta_16 168754
depth_3_delta_-15 128295
depth_3_delta_32 29488
depth_3_delta_-47 29485
depth_3_delta_31 9110
depth_3_delta_-31 6705
depth_3_delta_15 3617
depth_3_delta_-30 1906
depth_3_delta_-1 373
depth_3_delta_-8 247
depth_3_delta_3 213
depth_3_delta_-4 172
depth_3_delta_2 71
depth_3_delta_-44 49
depth_3_delta_38 45
depth_3_delta_-2 42
depth_3_delta_63 6
depth_3_delta_-41 5
depth_3_delta_57 5
depth_3_delta_-61 5
depth_3_delta_14 3
depth_3_delta_-40 2
depth_3_delta_-55 1
depth_3_delta_19 1
depth_3_delta_-9 1
depth_3_delta_10 1
depth_4_delta_1 3198476
depth_4_delta_16 121758
depth_4_delta_-15 93625
depth_4_delta_32 23280
depth_4_delta_-47 23256
depth_4_delta_31 2897
depth_4_delta_-31 1866
depth_4_delta_15 1122
depth_4_delta_-30 889
depth_4_delta_2 60
depth_4_delta_-8 32
depth_4_delta_-1 27
depth_4_delta_-4 7
depth_4_delta_3 7
depth_4_delta_-2 4
depth_4_delta_-41 3
depth_5_delta_1 2780081
depth_5_delta_16 66505
depth_5_delta_-15 56176
depth_5_delta_32 13677
depth_5_delta_-47 13126
depth_5_delta_-31 676
depth_5_delta_31 603
depth_5_delta_-30 96
depth_5_delta_15 12
depth_6_delta_1 2008250
depth_6_delta_16 21519
depth_6_delta_-15 18665
depth_6_delta_-47 3437
depth_6_delta_32 3191
depth_6_delta_-31 133
depth_6_delta_31 16
depth_6_delta_-30 1
depth_7_delta_1 1198613
depth_7_delta_-15 2338
depth_7_delta_16 2178
depth_7_delta_32 175
depth_7_delta_-47 104
depth_7_delta_-31 5
depth_8_delta_1 699498
depth_8_delta_-15 590
depth_8_delta_16 478
depth_9_delta_1 372685
depth_9_delta_16 274
depth_9_delta_-15 148
depth_10_delta_1 94056
depth_10_delta_-15 82
depth_10_delta_16 11
depth_11_delta_1 250

Channel_0_RQ_row_buffer_hit 709526
Channel_0_RQ_row_buffer_miss 2901655
Channel_0_WQ_row_buffer_hit 300769
Channel_0_WQ_row_buffer_miss 799843
Channel_0_WQ_full 0
Channel_0_dbus_congested 1137959

avg_congested_cycle 1

DRAM_bw_pochs 1989173
DRAM_bw_level_0 1985955
DRAM_bw_level_1 3196
DRAM_bw_level_2 22
DRAM_bw_level_3 0
