*************************************************
   ChampSim Multicore Out-of-Order Simulator
   Last compiled: Dec 11 2024 17:59:53
*************************************************
parsing config file: /home/functionmain/桌面/Pythia/config/spp_dev2.ini

trace_0 /home/functionmain/桌面/Pythia/traces/437.leslie3d-149B.champsimtrace.xz
adding L2C_PREFETCHER: SPP_dev2
Initialize SIGNATURE TABLE
ST_SET: 1
ST_WAY: 256
ST_TAG_BIT: 16
ST_TAG_MASK: ffff

Initialize PATTERN TABLE
PT_SET: 512
PT_WAY: 4
SIG_DELTA_BIT: 7
C_SIG_BIT: 4
C_DELTA_BIT: 4

Initialize PREFETCH FILTER
FILTER_SET: 1024
fill_threshold: 90
pf_threshold: 40

Initialize SHIP state
warmup_instructions 100000000
simulation_instructions 500000000
champsim_seed 224
measure_ipc 0
measure_ipc_epoch 1000
measure_dram_bw 1
measure_dram_bw_epoch 256
measure_cache_acc 1
measure_cache_acc_epoch 1024
l1d_perfect 0
l2c_perfect 0
llc_perfect 0
l1d_semi_perfect 0
l2c_semi_perfect 0
llc_semi_perfect 0
semi_perfect_cache_page_buffer_size 64

num_cpus 1
cpu_freq 4000
dram_io_freq 4800
page_size 4096
block_size 64
max_read_per_cycle 8
max_fill_per_cycle 1
dram_channels 1
log2_dram_channels 0
dram_ranks 1
dram_banks 8
dram_rows 65536
dram_columns 128
dram_row_size 8
dram_size 4096
dram_pages 1048576

fetch_width 6
decode_width 6
exec_width 4
lq_width 2
sq_width 2
retire_width 4
scheduler_size 128
branch_mispredict_penalty 20
rob_size 256
lq_size 72
sq_size 56
num_instr_destinations_sparc 4
num_instr_destinations 2
num_instr_sources 4

itlb_set 16
itlb_way 8
itlb_rq_size 16
itlb_wq_size 16
itlb_pq_size 0
itlb_mshr_size 8
itlb_latency 1

dtlb_set 16
dtlb_way 4
dtlb_rq_size 16
dtlb_wq_size 16
dtlb_pq_size 0
dtlb_mshr_size 8
dtlb_latency 1

stlb_set 128
stlb_way 12
stlb_rq_size 32
stlb_wq_size 32
stlb_pq_size 0
stlb_mshr_size 16
stlb_latency 8

l1i_size 32
l1i_set 64
l1i_way 8
l1i_rq_size 64
l1i_wq_size 64
l1i_pq_size 8
l1i_mshr_size 8
l1i_latency 1

l1d_size 32
l1d_set 64
l1d_way 8
l1d_rq_size 64
l1d_wq_size 64
l1d_pq_size 8
l1d_mshr_size 16
l1d_latency 4

l2c_size 256
l2c_set 512
l2c_way 8
l2c_rq_size 32
l2c_wq_size 32
l2c_pq_size 32
l2c_mshr_size 32
l2c_latency 10

llc_size 2048
llc_set 2048
llc_way 16
llc_rq_size 32
llc_wq_size 32
llc_pq_size 32
llc_mshr_size 64
llc_latency 20

dram_channel_width 8
dram_wq_size 64
dram_rq_size 64
tRP 15
tRCD 15
tCAS 12.5
dram_dbus_turn_around_time 30
dram_write_high_wm 56
dram_write_low_wm 48
min_dram_writes_per_switch 16
dram_mtps 4800
dram_dbus_return_time 6


Heartbeat CPU  0 instructions:    1000002 cycles:     502625 heartbeat IPC: 1.98956 cumulative IPC: 1.98956 (Simulation time: 0 hr 0 min 2 sec) 
Heartbeat CPU  0 instructions:    2000001 cycles:     990802 heartbeat IPC: 2.04844 cumulative IPC: 2.01857 (Simulation time: 0 hr 0 min 4 sec) 
Heartbeat CPU  0 instructions:    3000003 cycles:    1492720 heartbeat IPC: 1.99236 cumulative IPC: 2.00976 (Simulation time: 0 hr 0 min 6 sec) 
Heartbeat CPU  0 instructions:    4000000 cycles:    1994454 heartbeat IPC: 1.99308 cumulative IPC: 2.00556 (Simulation time: 0 hr 0 min 8 sec) 
Heartbeat CPU  0 instructions:    5000000 cycles:    2496700 heartbeat IPC: 1.99106 cumulative IPC: 2.00264 (Simulation time: 0 hr 0 min 10 sec) 
Heartbeat CPU  0 instructions:    6000001 cycles:    2996445 heartbeat IPC: 2.00102 cumulative IPC: 2.00237 (Simulation time: 0 hr 0 min 12 sec) 
Heartbeat CPU  0 instructions:    7000000 cycles:    3486472 heartbeat IPC: 2.04070 cumulative IPC: 2.00776 (Simulation time: 0 hr 0 min 14 sec) 
Heartbeat CPU  0 instructions:    8000000 cycles:    3989432 heartbeat IPC: 1.98823 cumulative IPC: 2.00530 (Simulation time: 0 hr 0 min 16 sec) 
Heartbeat CPU  0 instructions:    9000002 cycles:    4491260 heartbeat IPC: 1.99272 cumulative IPC: 2.00389 (Simulation time: 0 hr 0 min 18 sec) 
Heartbeat CPU  0 instructions:   10000000 cycles:    4993172 heartbeat IPC: 1.99238 cumulative IPC: 2.00273 (Simulation time: 0 hr 0 min 20 sec) 
Heartbeat CPU  0 instructions:   11000002 cycles:    5484105 heartbeat IPC: 2.03694 cumulative IPC: 2.00580 (Simulation time: 0 hr 0 min 22 sec) 
Heartbeat CPU  0 instructions:   12000000 cycles:    5982907 heartbeat IPC: 2.00480 cumulative IPC: 2.00571 (Simulation time: 0 hr 0 min 24 sec) 
Heartbeat CPU  0 instructions:   13000002 cycles:    6485243 heartbeat IPC: 1.99070 cumulative IPC: 2.00455 (Simulation time: 0 hr 0 min 26 sec) 
Heartbeat CPU  0 instructions:   14000003 cycles:    6987461 heartbeat IPC: 1.99117 cumulative IPC: 2.00359 (Simulation time: 0 hr 0 min 28 sec) 
Heartbeat CPU  0 instructions:   15000002 cycles:    7489550 heartbeat IPC: 1.99168 cumulative IPC: 2.00279 (Simulation time: 0 hr 0 min 31 sec) 
Heartbeat CPU  0 instructions:   16000000 cycles:    7977006 heartbeat IPC: 2.05146 cumulative IPC: 2.00576 (Simulation time: 0 hr 0 min 33 sec) 
Heartbeat CPU  0 instructions:   17000001 cycles:    8479796 heartbeat IPC: 1.98890 cumulative IPC: 2.00477 (Simulation time: 0 hr 0 min 35 sec) 
Heartbeat CPU  0 instructions:   18000003 cycles:    8982831 heartbeat IPC: 1.98794 cumulative IPC: 2.00382 (Simulation time: 0 hr 0 min 37 sec) 
Heartbeat CPU  0 instructions:   19000003 cycles:    9484897 heartbeat IPC: 1.99177 cumulative IPC: 2.00319 (Simulation time: 0 hr 0 min 39 sec) 
Heartbeat CPU  0 instructions:   20000000 cycles:    9977004 heartbeat IPC: 2.03207 cumulative IPC: 2.00461 (Simulation time: 0 hr 0 min 41 sec) 
Heartbeat CPU  0 instructions:   21000003 cycles:   10474316 heartbeat IPC: 2.01082 cumulative IPC: 2.00490 (Simulation time: 0 hr 0 min 43 sec) 
Heartbeat CPU  0 instructions:   22000001 cycles:   10976877 heartbeat IPC: 1.98980 cumulative IPC: 2.00421 (Simulation time: 0 hr 0 min 45 sec) 
Heartbeat CPU  0 instructions:   23000002 cycles:   11479349 heartbeat IPC: 1.99016 cumulative IPC: 2.00360 (Simulation time: 0 hr 0 min 47 sec) 
Heartbeat CPU  0 instructions:   24000000 cycles:   11981264 heartbeat IPC: 1.99237 cumulative IPC: 2.00313 (Simulation time: 0 hr 0 min 49 sec) 
Heartbeat CPU  0 instructions:   25000002 cycles:   12468803 heartbeat IPC: 2.05112 cumulative IPC: 2.00500 (Simulation time: 0 hr 0 min 51 sec) 
Heartbeat CPU  0 instructions:   26000002 cycles:   12970573 heartbeat IPC: 1.99294 cumulative IPC: 2.00454 (Simulation time: 0 hr 0 min 53 sec) 
Heartbeat CPU  0 instructions:   27000001 cycles:   13472801 heartbeat IPC: 1.99113 cumulative IPC: 2.00404 (Simulation time: 0 hr 0 min 55 sec) 
Heartbeat CPU  0 instructions:   28000000 cycles:   13975316 heartbeat IPC: 1.98999 cumulative IPC: 2.00353 (Simulation time: 0 hr 0 min 57 sec) 
Heartbeat CPU  0 instructions:   29000003 cycles:   14470150 heartbeat IPC: 2.02089 cumulative IPC: 2.00413 (Simulation time: 0 hr 0 min 59 sec) 
Heartbeat CPU  0 instructions:   30000003 cycles:   14964731 heartbeat IPC: 2.02191 cumulative IPC: 2.00471 (Simulation time: 0 hr 1 min 1 sec) 
Heartbeat CPU  0 instructions:   31000001 cycles:   15466751 heartbeat IPC: 1.99195 cumulative IPC: 2.00430 (Simulation time: 0 hr 1 min 3 sec) 
Heartbeat CPU  0 instructions:   32000000 cycles:   15968971 heartbeat IPC: 1.99116 cumulative IPC: 2.00389 (Simulation time: 0 hr 1 min 5 sec) 
Heartbeat CPU  0 instructions:   33000000 cycles:   16471272 heartbeat IPC: 1.99084 cumulative IPC: 2.00349 (Simulation time: 0 hr 1 min 7 sec) 
Heartbeat CPU  0 instructions:   34000003 cycles:   16958929 heartbeat IPC: 2.05063 cumulative IPC: 2.00484 (Simulation time: 0 hr 1 min 9 sec) 
Heartbeat CPU  0 instructions:   35000003 cycles:   17460773 heartbeat IPC: 1.99265 cumulative IPC: 2.00449 (Simulation time: 0 hr 1 min 11 sec) 
Heartbeat CPU  0 instructions:   36000000 cycles:   17962650 heartbeat IPC: 1.99251 cumulative IPC: 2.00416 (Simulation time: 0 hr 1 min 13 sec) 
Heartbeat CPU  0 instructions:   37000001 cycles:   18465470 heartbeat IPC: 1.98879 cumulative IPC: 2.00374 (Simulation time: 0 hr 1 min 15 sec) 
Heartbeat CPU  0 instructions:   38000003 cycles:   18962919 heartbeat IPC: 2.01026 cumulative IPC: 2.00391 (Simulation time: 0 hr 1 min 17 sec) 
Heartbeat CPU  0 instructions:   39000001 cycles:   19455461 heartbeat IPC: 2.03028 cumulative IPC: 2.00458 (Simulation time: 0 hr 1 min 19 sec) 
Heartbeat CPU  0 instructions:   40000000 cycles:   19957587 heartbeat IPC: 1.99153 cumulative IPC: 2.00425 (Simulation time: 0 hr 1 min 21 sec) 
Heartbeat CPU  0 instructions:   41000002 cycles:   20459845 heartbeat IPC: 1.99101 cumulative IPC: 2.00393 (Simulation time: 0 hr 1 min 23 sec) 
Heartbeat CPU  0 instructions:   42000000 cycles:   20962208 heartbeat IPC: 1.99059 cumulative IPC: 2.00361 (Simulation time: 0 hr 1 min 26 sec) 
Heartbeat CPU  0 instructions:   43000000 cycles:   21450282 heartbeat IPC: 2.04887 cumulative IPC: 2.00464 (Simulation time: 0 hr 1 min 28 sec) 
Heartbeat CPU  0 instructions:   44000000 cycles:   21952414 heartbeat IPC: 1.99151 cumulative IPC: 2.00434 (Simulation time: 0 hr 1 min 30 sec) 
Heartbeat CPU  0 instructions:   45000002 cycles:   22454998 heartbeat IPC: 1.98972 cumulative IPC: 2.00401 (Simulation time: 0 hr 1 min 32 sec) 
Heartbeat CPU  0 instructions:   46000003 cycles:   22956758 heartbeat IPC: 1.99299 cumulative IPC: 2.00377 (Simulation time: 0 hr 1 min 34 sec) 
Heartbeat CPU  0 instructions:   47000000 cycles:   23455716 heartbeat IPC: 2.00417 cumulative IPC: 2.00378 (Simulation time: 0 hr 1 min 36 sec) 
Heartbeat CPU  0 instructions:   48000000 cycles:   23946621 heartbeat IPC: 2.03705 cumulative IPC: 2.00446 (Simulation time: 0 hr 1 min 38 sec) 
Heartbeat CPU  0 instructions:   49000002 cycles:   24449279 heartbeat IPC: 1.98943 cumulative IPC: 2.00415 (Simulation time: 0 hr 1 min 40 sec) 
Heartbeat CPU  0 instructions:   50000003 cycles:   24951566 heartbeat IPC: 1.99090 cumulative IPC: 2.00388 (Simulation time: 0 hr 1 min 42 sec) 
Heartbeat CPU  0 instructions:   51000001 cycles:   25453520 heartbeat IPC: 1.99221 cumulative IPC: 2.00365 (Simulation time: 0 hr 1 min 44 sec) 
Heartbeat CPU  0 instructions:   52000000 cycles:   25943558 heartbeat IPC: 2.04066 cumulative IPC: 2.00435 (Simulation time: 0 hr 1 min 46 sec) 
Heartbeat CPU  0 instructions:   53000003 cycles:   26443295 heartbeat IPC: 2.00106 cumulative IPC: 2.00429 (Simulation time: 0 hr 1 min 48 sec) 
Heartbeat CPU  0 instructions:   54000003 cycles:   26954725 heartbeat IPC: 1.95530 cumulative IPC: 2.00336 (Simulation time: 0 hr 1 min 50 sec) 
Heartbeat CPU  0 instructions:   55000001 cycles:   27473846 heartbeat IPC: 1.92633 cumulative IPC: 2.00190 (Simulation time: 0 hr 1 min 53 sec) 
Heartbeat CPU  0 instructions:   56000000 cycles:   27986356 heartbeat IPC: 1.95118 cumulative IPC: 2.00098 (Simulation time: 0 hr 1 min 55 sec) 
Heartbeat CPU  0 instructions:   57000000 cycles:   28498399 heartbeat IPC: 1.95296 cumulative IPC: 2.00011 (Simulation time: 0 hr 1 min 57 sec) 
Heartbeat CPU  0 instructions:   58000002 cycles:   29012431 heartbeat IPC: 1.94541 cumulative IPC: 1.99914 (Simulation time: 0 hr 1 min 59 sec) 
Heartbeat CPU  0 instructions:   59000003 cycles:   29524091 heartbeat IPC: 1.95442 cumulative IPC: 1.99837 (Simulation time: 0 hr 2 min 1 sec) 
Heartbeat CPU  0 instructions:   60000000 cycles:   30035022 heartbeat IPC: 1.95721 cumulative IPC: 1.99767 (Simulation time: 0 hr 2 min 3 sec) 
Heartbeat CPU  0 instructions:   61000001 cycles:   30547782 heartbeat IPC: 1.95023 cumulative IPC: 1.99687 (Simulation time: 0 hr 2 min 5 sec) 
Heartbeat CPU  0 instructions:   62000003 cycles:   31060371 heartbeat IPC: 1.95088 cumulative IPC: 1.99611 (Simulation time: 0 hr 2 min 7 sec) 
Heartbeat CPU  0 instructions:   63000001 cycles:   31572269 heartbeat IPC: 1.95351 cumulative IPC: 1.99542 (Simulation time: 0 hr 2 min 9 sec) 
Heartbeat CPU  0 instructions:   64000000 cycles:   32085656 heartbeat IPC: 1.94785 cumulative IPC: 1.99466 (Simulation time: 0 hr 2 min 11 sec) 
Heartbeat CPU  0 instructions:   65000000 cycles:   32599011 heartbeat IPC: 1.94797 cumulative IPC: 1.99393 (Simulation time: 0 hr 2 min 13 sec) 
Heartbeat CPU  0 instructions:   66000002 cycles:   33110953 heartbeat IPC: 1.95335 cumulative IPC: 1.99330 (Simulation time: 0 hr 2 min 15 sec) 
Heartbeat CPU  0 instructions:   67000002 cycles:   33624188 heartbeat IPC: 1.94843 cumulative IPC: 1.99261 (Simulation time: 0 hr 2 min 17 sec) 
Heartbeat CPU  0 instructions:   68000000 cycles:   34137562 heartbeat IPC: 1.94789 cumulative IPC: 1.99194 (Simulation time: 0 hr 2 min 19 sec) 
Heartbeat CPU  0 instructions:   69000001 cycles:   34649230 heartbeat IPC: 1.95439 cumulative IPC: 1.99139 (Simulation time: 0 hr 2 min 21 sec) 
Heartbeat CPU  0 instructions:   70000003 cycles:   35162154 heartbeat IPC: 1.94961 cumulative IPC: 1.99078 (Simulation time: 0 hr 2 min 23 sec) 
Heartbeat CPU  0 instructions:   71000002 cycles:   35675044 heartbeat IPC: 1.94973 cumulative IPC: 1.99019 (Simulation time: 0 hr 2 min 25 sec) 
Heartbeat CPU  0 instructions:   72000000 cycles:   36186320 heartbeat IPC: 1.95589 cumulative IPC: 1.98970 (Simulation time: 0 hr 2 min 27 sec) 
Heartbeat CPU  0 instructions:   73000003 cycles:   36698539 heartbeat IPC: 1.95230 cumulative IPC: 1.98918 (Simulation time: 0 hr 2 min 29 sec) 
Heartbeat CPU  0 instructions:   74000001 cycles:   37211037 heartbeat IPC: 1.95122 cumulative IPC: 1.98866 (Simulation time: 0 hr 2 min 31 sec) 
Heartbeat CPU  0 instructions:   75000001 cycles:   37723285 heartbeat IPC: 1.95218 cumulative IPC: 1.98816 (Simulation time: 0 hr 2 min 33 sec) 
Heartbeat CPU  0 instructions:   76000000 cycles:   38236277 heartbeat IPC: 1.94935 cumulative IPC: 1.98764 (Simulation time: 0 hr 2 min 35 sec) 
Heartbeat CPU  0 instructions:   77000001 cycles:   38749933 heartbeat IPC: 1.94683 cumulative IPC: 1.98710 (Simulation time: 0 hr 2 min 37 sec) 
Heartbeat CPU  0 instructions:   78000003 cycles:   39262000 heartbeat IPC: 1.95287 cumulative IPC: 1.98665 (Simulation time: 0 hr 2 min 39 sec) 
Heartbeat CPU  0 instructions:   79000000 cycles:   39774791 heartbeat IPC: 1.95011 cumulative IPC: 1.98618 (Simulation time: 0 hr 2 min 41 sec) 
Heartbeat CPU  0 instructions:   80000000 cycles:   40288439 heartbeat IPC: 1.94686 cumulative IPC: 1.98568 (Simulation time: 0 hr 2 min 43 sec) 
Heartbeat CPU  0 instructions:   81000000 cycles:   40800827 heartbeat IPC: 1.95165 cumulative IPC: 1.98525 (Simulation time: 0 hr 2 min 45 sec) 
Heartbeat CPU  0 instructions:   82000001 cycles:   41313415 heartbeat IPC: 1.95089 cumulative IPC: 1.98483 (Simulation time: 0 hr 2 min 46 sec) 
Heartbeat CPU  0 instructions:   83000001 cycles:   41827241 heartbeat IPC: 1.94618 cumulative IPC: 1.98435 (Simulation time: 0 hr 2 min 48 sec) 
Heartbeat CPU  0 instructions:   84000000 cycles:   42339225 heartbeat IPC: 1.95318 cumulative IPC: 1.98398 (Simulation time: 0 hr 2 min 50 sec) 
Heartbeat CPU  0 instructions:   85000001 cycles:   42851355 heartbeat IPC: 1.95263 cumulative IPC: 1.98360 (Simulation time: 0 hr 2 min 52 sec) 
Heartbeat CPU  0 instructions:   86000002 cycles:   43364814 heartbeat IPC: 1.94758 cumulative IPC: 1.98317 (Simulation time: 0 hr 2 min 54 sec) 
Heartbeat CPU  0 instructions:   87000003 cycles:   43876665 heartbeat IPC: 1.95370 cumulative IPC: 1.98283 (Simulation time: 0 hr 2 min 56 sec) 
Heartbeat CPU  0 instructions:   88000000 cycles:   44388935 heartbeat IPC: 1.95209 cumulative IPC: 1.98248 (Simulation time: 0 hr 2 min 58 sec) 
Heartbeat CPU  0 instructions:   89000002 cycles:   44902829 heartbeat IPC: 1.94593 cumulative IPC: 1.98206 (Simulation time: 0 hr 3 min 0 sec) 
Heartbeat CPU  0 instructions:   90000003 cycles:   45415106 heartbeat IPC: 1.95207 cumulative IPC: 1.98172 (Simulation time: 0 hr 3 min 2 sec) 
Heartbeat CPU  0 instructions:   91000002 cycles:   45926437 heartbeat IPC: 1.95568 cumulative IPC: 1.98143 (Simulation time: 0 hr 3 min 4 sec) 
Heartbeat CPU  0 instructions:   92000000 cycles:   46439663 heartbeat IPC: 1.94846 cumulative IPC: 1.98107 (Simulation time: 0 hr 3 min 6 sec) 
Heartbeat CPU  0 instructions:   93000001 cycles:   46951575 heartbeat IPC: 1.95346 cumulative IPC: 1.98076 (Simulation time: 0 hr 3 min 8 sec) 
Heartbeat CPU  0 instructions:   94000003 cycles:   47463402 heartbeat IPC: 1.95379 cumulative IPC: 1.98047 (Simulation time: 0 hr 3 min 10 sec) 
Heartbeat CPU  0 instructions:   95000003 cycles:   47977378 heartbeat IPC: 1.94562 cumulative IPC: 1.98010 (Simulation time: 0 hr 3 min 12 sec) 
Heartbeat CPU  0 instructions:   96000000 cycles:   48489856 heartbeat IPC: 1.95130 cumulative IPC: 1.97980 (Simulation time: 0 hr 3 min 14 sec) 
Heartbeat CPU  0 instructions:   97000002 cycles:   49001556 heartbeat IPC: 1.95427 cumulative IPC: 1.97953 (Simulation time: 0 hr 3 min 16 sec) 
Heartbeat CPU  0 instructions:   98000000 cycles:   49514773 heartbeat IPC: 1.94849 cumulative IPC: 1.97921 (Simulation time: 0 hr 3 min 18 sec) 
Heartbeat CPU  0 instructions:   99000000 cycles:   50026918 heartbeat IPC: 1.95257 cumulative IPC: 1.97893 (Simulation time: 0 hr 3 min 20 sec) 
Heartbeat CPU  0 instructions:  100000000 cycles:   50563461 heartbeat IPC: 1.86378 cumulative IPC: 1.97771 (Simulation time: 0 hr 3 min 22 sec) 

Warmup complete CPU  0 instructions:  100000001 cycles:   50563482 (Simulation time: 0 hr 3 min 22 sec) 

Heartbeat CPU  0 instructions:  101000003 cycles:   52027062 heartbeat IPC: 0.68325 cumulative IPC: 0.68326 (Simulation time: 0 hr 3 min 26 sec) 
Heartbeat CPU  0 instructions:  102000000 cycles:   54849721 heartbeat IPC: 0.35427 cumulative IPC: 0.46661 (Simulation time: 0 hr 3 min 30 sec) 
Heartbeat CPU  0 instructions:  103000002 cycles:   56915132 heartbeat IPC: 0.48417 cumulative IPC: 0.47232 (Simulation time: 0 hr 3 min 33 sec) 
Heartbeat CPU  0 instructions:  104000000 cycles:   57666111 heartbeat IPC: 1.33159 cumulative IPC: 0.56317 (Simulation time: 0 hr 3 min 35 sec) 
Heartbeat CPU  0 instructions:  105000002 cycles:   58423830 heartbeat IPC: 1.31975 cumulative IPC: 0.63610 (Simulation time: 0 hr 3 min 38 sec) 
Heartbeat CPU  0 instructions:  106000003 cycles:   59183407 heartbeat IPC: 1.31652 cumulative IPC: 0.69606 (Simulation time: 0 hr 3 min 41 sec) 
Heartbeat CPU  0 instructions:  107000000 cycles:   59942342 heartbeat IPC: 1.31763 cumulative IPC: 0.74636 (Simulation time: 0 hr 3 min 43 sec) 
Heartbeat CPU  0 instructions:  108000000 cycles:   60695365 heartbeat IPC: 1.32798 cumulative IPC: 0.78959 (Simulation time: 0 hr 3 min 46 sec) 
Heartbeat CPU  0 instructions:  109000001 cycles:   61447410 heartbeat IPC: 1.32971 cumulative IPC: 0.82691 (Simulation time: 0 hr 3 min 48 sec) 
Heartbeat CPU  0 instructions:  110000001 cycles:   62218563 heartbeat IPC: 1.29676 cumulative IPC: 0.85799 (Simulation time: 0 hr 3 min 51 sec) 
Heartbeat CPU  0 instructions:  111000001 cycles:   63001800 heartbeat IPC: 1.27675 cumulative IPC: 0.88436 (Simulation time: 0 hr 3 min 53 sec) 
Heartbeat CPU  0 instructions:  112000000 cycles:   63782487 heartbeat IPC: 1.28092 cumulative IPC: 0.90778 (Simulation time: 0 hr 3 min 56 sec) 
Heartbeat CPU  0 instructions:  113000003 cycles:   64566467 heartbeat IPC: 1.27555 cumulative IPC: 0.92837 (Simulation time: 0 hr 3 min 58 sec) 
Heartbeat CPU  0 instructions:  114000001 cycles:   65346464 heartbeat IPC: 1.28205 cumulative IPC: 0.94703 (Simulation time: 0 hr 4 min 1 sec) 
Heartbeat CPU  0 instructions:  115000001 cycles:   66126631 heartbeat IPC: 1.28178 cumulative IPC: 0.96382 (Simulation time: 0 hr 4 min 3 sec) 
Heartbeat CPU  0 instructions:  116000000 cycles:   66924735 heartbeat IPC: 1.25297 cumulative IPC: 0.97792 (Simulation time: 0 hr 4 min 5 sec) 
Heartbeat CPU  0 instructions:  117000000 cycles:   67742342 heartbeat IPC: 1.22308 cumulative IPC: 0.98959 (Simulation time: 0 hr 4 min 8 sec) 
Heartbeat CPU  0 instructions:  118000003 cycles:   68558807 heartbeat IPC: 1.22480 cumulative IPC: 1.00026 (Simulation time: 0 hr 4 min 10 sec) 
Heartbeat CPU  0 instructions:  119000000 cycles:   69380585 heartbeat IPC: 1.21687 cumulative IPC: 1.00972 (Simulation time: 0 hr 4 min 13 sec) 
Heartbeat CPU  0 instructions:  120000000 cycles:   70201264 heartbeat IPC: 1.21850 cumulative IPC: 1.01844 (Simulation time: 0 hr 4 min 15 sec) 
Heartbeat CPU  0 instructions:  121000001 cycles:   71024769 heartbeat IPC: 1.21432 cumulative IPC: 1.02633 (Simulation time: 0 hr 4 min 18 sec) 
Heartbeat CPU  0 instructions:  122000002 cycles:   71845755 heartbeat IPC: 1.21805 cumulative IPC: 1.03372 (Simulation time: 0 hr 4 min 20 sec) 
Heartbeat CPU  0 instructions:  123000000 cycles:   72668767 heartbeat IPC: 1.21505 cumulative IPC: 1.04048 (Simulation time: 0 hr 4 min 23 sec) 
Heartbeat CPU  0 instructions:  124000000 cycles:   73489248 heartbeat IPC: 1.21880 cumulative IPC: 1.04686 (Simulation time: 0 hr 4 min 25 sec) 
Heartbeat CPU  0 instructions:  125000002 cycles:   74310791 heartbeat IPC: 1.21722 cumulative IPC: 1.05275 (Simulation time: 0 hr 4 min 27 sec) 
Heartbeat CPU  0 instructions:  126000001 cycles:   75133872 heartbeat IPC: 1.21495 cumulative IPC: 1.05818 (Simulation time: 0 hr 4 min 29 sec) 
Heartbeat CPU  0 instructions:  127000003 cycles:   75955938 heartbeat IPC: 1.21645 cumulative IPC: 1.06331 (Simulation time: 0 hr 4 min 31 sec) 
Heartbeat CPU  0 instructions:  128000000 cycles:   76779715 heartbeat IPC: 1.21392 cumulative IPC: 1.06804 (Simulation time: 0 hr 4 min 33 sec) 
Heartbeat CPU  0 instructions:  129000001 cycles:   77600552 heartbeat IPC: 1.21827 cumulative IPC: 1.07260 (Simulation time: 0 hr 4 min 35 sec) 
Heartbeat CPU  0 instructions:  130000003 cycles:   78422953 heartbeat IPC: 1.21595 cumulative IPC: 1.07683 (Simulation time: 0 hr 4 min 37 sec) 
Heartbeat CPU  0 instructions:  131000000 cycles:   79246290 heartbeat IPC: 1.21457 cumulative IPC: 1.08079 (Simulation time: 0 hr 4 min 39 sec) 
Heartbeat CPU  0 instructions:  132000000 cycles:   80066281 heartbeat IPC: 1.21953 cumulative IPC: 1.08464 (Simulation time: 0 hr 4 min 41 sec) 
Heartbeat CPU  0 instructions:  133000000 cycles:   80889405 heartbeat IPC: 1.21488 cumulative IPC: 1.08818 (Simulation time: 0 hr 4 min 44 sec) 
Heartbeat CPU  0 instructions:  134000003 cycles:   81712060 heartbeat IPC: 1.21558 cumulative IPC: 1.09154 (Simulation time: 0 hr 4 min 46 sec) 
Heartbeat CPU  0 instructions:  135000003 cycles:   82535996 heartbeat IPC: 1.21369 cumulative IPC: 1.09469 (Simulation time: 0 hr 4 min 48 sec) 
Heartbeat CPU  0 instructions:  136000000 cycles:   83357398 heartbeat IPC: 1.21743 cumulative IPC: 1.09776 (Simulation time: 0 hr 4 min 50 sec) 
Heartbeat CPU  0 instructions:  137000003 cycles:   84179621 heartbeat IPC: 1.21622 cumulative IPC: 1.10066 (Simulation time: 0 hr 4 min 52 sec) 
Heartbeat CPU  0 instructions:  138000002 cycles:   85003026 heartbeat IPC: 1.21447 cumulative IPC: 1.10338 (Simulation time: 0 hr 4 min 54 sec) 
Heartbeat CPU  0 instructions:  139000002 cycles:   85824826 heartbeat IPC: 1.21684 cumulative IPC: 1.10603 (Simulation time: 0 hr 4 min 56 sec) 
Heartbeat CPU  0 instructions:  140000000 cycles:   86646697 heartbeat IPC: 1.21673 cumulative IPC: 1.10855 (Simulation time: 0 hr 4 min 58 sec) 
Heartbeat CPU  0 instructions:  141000000 cycles:   87469929 heartbeat IPC: 1.21472 cumulative IPC: 1.11092 (Simulation time: 0 hr 5 min 0 sec) 
Heartbeat CPU  0 instructions:  142000000 cycles:   88292030 heartbeat IPC: 1.21640 cumulative IPC: 1.11322 (Simulation time: 0 hr 5 min 2 sec) 
Heartbeat CPU  0 instructions:  143000003 cycles:   89114090 heartbeat IPC: 1.21646 cumulative IPC: 1.11542 (Simulation time: 0 hr 5 min 4 sec) 
Heartbeat CPU  0 instructions:  144000000 cycles:   89936158 heartbeat IPC: 1.21644 cumulative IPC: 1.11753 (Simulation time: 0 hr 5 min 6 sec) 
Heartbeat CPU  0 instructions:  145000001 cycles:   90759432 heartbeat IPC: 1.21466 cumulative IPC: 1.11952 (Simulation time: 0 hr 5 min 8 sec) 
Heartbeat CPU  0 instructions:  146000003 cycles:   91579782 heartbeat IPC: 1.21899 cumulative IPC: 1.12151 (Simulation time: 0 hr 5 min 11 sec) 
Heartbeat CPU  0 instructions:  147000000 cycles:   92402635 heartbeat IPC: 1.21528 cumulative IPC: 1.12335 (Simulation time: 0 hr 5 min 13 sec) 
Heartbeat CPU  0 instructions:  148000000 cycles:   93226551 heartbeat IPC: 1.21372 cumulative IPC: 1.12509 (Simulation time: 0 hr 5 min 15 sec) 
Heartbeat CPU  0 instructions:  149000003 cycles:   94047463 heartbeat IPC: 1.21816 cumulative IPC: 1.12685 (Simulation time: 0 hr 5 min 17 sec) 
Heartbeat CPU  0 instructions:  150000003 cycles:   94870632 heartbeat IPC: 1.21482 cumulative IPC: 1.12849 (Simulation time: 0 hr 5 min 19 sec) 
Heartbeat CPU  0 instructions:  151000000 cycles:   95692025 heartbeat IPC: 1.21744 cumulative IPC: 1.13011 (Simulation time: 0 hr 5 min 21 sec) 
Heartbeat CPU  0 instructions:  152000000 cycles:   96512939 heartbeat IPC: 1.21815 cumulative IPC: 1.13168 (Simulation time: 0 hr 5 min 23 sec) 
Heartbeat CPU  0 instructions:  153000002 cycles:   97335732 heartbeat IPC: 1.21537 cumulative IPC: 1.13315 (Simulation time: 0 hr 5 min 25 sec) 
Heartbeat CPU  0 instructions:  154000002 cycles:   98157090 heartbeat IPC: 1.21750 cumulative IPC: 1.13461 (Simulation time: 0 hr 5 min 27 sec) 
Heartbeat CPU  0 instructions:  155000001 cycles:   98979812 heartbeat IPC: 1.21548 cumulative IPC: 1.13598 (Simulation time: 0 hr 5 min 29 sec) 
Heartbeat CPU  0 instructions:  156000000 cycles:   99800027 heartbeat IPC: 1.21919 cumulative IPC: 1.13737 (Simulation time: 0 hr 5 min 31 sec) 
Heartbeat CPU  0 instructions:  157000000 cycles:  100621247 heartbeat IPC: 1.21770 cumulative IPC: 1.13868 (Simulation time: 0 hr 5 min 33 sec) 
Heartbeat CPU  0 instructions:  158000001 cycles:  101442521 heartbeat IPC: 1.21762 cumulative IPC: 1.13996 (Simulation time: 0 hr 5 min 36 sec) 
Heartbeat CPU  0 instructions:  159000003 cycles:  102264052 heartbeat IPC: 1.21724 cumulative IPC: 1.14119 (Simulation time: 0 hr 5 min 38 sec) 
Heartbeat CPU  0 instructions:  160000000 cycles:  103088635 heartbeat IPC: 1.21273 cumulative IPC: 1.14231 (Simulation time: 0 hr 5 min 40 sec) 
Heartbeat CPU  0 instructions:  161000001 cycles:  103910165 heartbeat IPC: 1.21724 cumulative IPC: 1.14346 (Simulation time: 0 hr 5 min 42 sec) 
Heartbeat CPU  0 instructions:  162000000 cycles:  104732211 heartbeat IPC: 1.21648 cumulative IPC: 1.14457 (Simulation time: 0 hr 5 min 44 sec) 
Heartbeat CPU  0 instructions:  163000003 cycles:  105554102 heartbeat IPC: 1.21671 cumulative IPC: 1.14565 (Simulation time: 0 hr 5 min 46 sec) 
Heartbeat CPU  0 instructions:  164000000 cycles:  106375154 heartbeat IPC: 1.21795 cumulative IPC: 1.14671 (Simulation time: 0 hr 5 min 48 sec) 
Heartbeat CPU  0 instructions:  165000000 cycles:  107196603 heartbeat IPC: 1.21736 cumulative IPC: 1.14774 (Simulation time: 0 hr 5 min 50 sec) 
Heartbeat CPU  0 instructions:  166000000 cycles:  108019730 heartbeat IPC: 1.21488 cumulative IPC: 1.14870 (Simulation time: 0 hr 5 min 52 sec) 
Heartbeat CPU  0 instructions:  167000003 cycles:  108840174 heartbeat IPC: 1.21886 cumulative IPC: 1.14969 (Simulation time: 0 hr 5 min 54 sec) 
Heartbeat CPU  0 instructions:  168000000 cycles:  109662505 heartbeat IPC: 1.21605 cumulative IPC: 1.15061 (Simulation time: 0 hr 5 min 56 sec) 
Heartbeat CPU  0 instructions:  169000003 cycles:  110486286 heartbeat IPC: 1.21392 cumulative IPC: 1.15148 (Simulation time: 0 hr 5 min 59 sec) 
Heartbeat CPU  0 instructions:  170000001 cycles:  111309888 heartbeat IPC: 1.21418 cumulative IPC: 1.15233 (Simulation time: 0 hr 6 min 1 sec) 
Heartbeat CPU  0 instructions:  171000002 cycles:  112131344 heartbeat IPC: 1.21735 cumulative IPC: 1.15320 (Simulation time: 0 hr 6 min 3 sec) 
Heartbeat CPU  0 instructions:  172000000 cycles:  112952654 heartbeat IPC: 1.21756 cumulative IPC: 1.15405 (Simulation time: 0 hr 6 min 5 sec) 
Heartbeat CPU  0 instructions:  173000002 cycles:  113774444 heartbeat IPC: 1.21686 cumulative IPC: 1.15486 (Simulation time: 0 hr 6 min 7 sec) 
Heartbeat CPU  0 instructions:  174000000 cycles:  114596397 heartbeat IPC: 1.21661 cumulative IPC: 1.15566 (Simulation time: 0 hr 6 min 9 sec) 
Heartbeat CPU  0 instructions:  175000001 cycles:  115419210 heartbeat IPC: 1.21534 cumulative IPC: 1.15641 (Simulation time: 0 hr 6 min 11 sec) 
Heartbeat CPU  0 instructions:  176000000 cycles:  116242934 heartbeat IPC: 1.21400 cumulative IPC: 1.15714 (Simulation time: 0 hr 6 min 13 sec) 
Heartbeat CPU  0 instructions:  177000000 cycles:  117064185 heartbeat IPC: 1.21765 cumulative IPC: 1.15788 (Simulation time: 0 hr 6 min 15 sec) 
Heartbeat CPU  0 instructions:  178000003 cycles:  117886237 heartbeat IPC: 1.21647 cumulative IPC: 1.15860 (Simulation time: 0 hr 6 min 17 sec) 
Heartbeat CPU  0 instructions:  179000000 cycles:  118707665 heartbeat IPC: 1.21739 cumulative IPC: 1.15931 (Simulation time: 0 hr 6 min 19 sec) 
Heartbeat CPU  0 instructions:  180000000 cycles:  119528449 heartbeat IPC: 1.21835 cumulative IPC: 1.16001 (Simulation time: 0 hr 6 min 21 sec) 
Heartbeat CPU  0 instructions:  181000003 cycles:  120349441 heartbeat IPC: 1.21804 cumulative IPC: 1.16069 (Simulation time: 0 hr 6 min 23 sec) 
Heartbeat CPU  0 instructions:  182000003 cycles:  121172508 heartbeat IPC: 1.21497 cumulative IPC: 1.16132 (Simulation time: 0 hr 6 min 25 sec) 
Heartbeat CPU  0 instructions:  183000003 cycles:  121993151 heartbeat IPC: 1.21856 cumulative IPC: 1.16198 (Simulation time: 0 hr 6 min 28 sec) 
Heartbeat CPU  0 instructions:  184000000 cycles:  122818087 heartbeat IPC: 1.21221 cumulative IPC: 1.16256 (Simulation time: 0 hr 6 min 30 sec) 
Heartbeat CPU  0 instructions:  185000002 cycles:  123640555 heartbeat IPC: 1.21586 cumulative IPC: 1.16316 (Simulation time: 0 hr 6 min 32 sec) 
Heartbeat CPU  0 instructions:  186000002 cycles:  124461228 heartbeat IPC: 1.21851 cumulative IPC: 1.16377 (Simulation time: 0 hr 6 min 34 sec) 
Heartbeat CPU  0 instructions:  187000001 cycles:  125339113 heartbeat IPC: 1.13910 cumulative IPC: 1.16348 (Simulation time: 0 hr 6 min 36 sec) 
Heartbeat CPU  0 instructions:  188000000 cycles:  126248882 heartbeat IPC: 1.09918 cumulative IPC: 1.16271 (Simulation time: 0 hr 6 min 38 sec) 
Heartbeat CPU  0 instructions:  189000000 cycles:  127159333 heartbeat IPC: 1.09836 cumulative IPC: 1.16194 (Simulation time: 0 hr 6 min 40 sec) 
Heartbeat CPU  0 instructions:  190000000 cycles:  128071106 heartbeat IPC: 1.09676 cumulative IPC: 1.16118 (Simulation time: 0 hr 6 min 42 sec) 
Heartbeat CPU  0 instructions:  191000003 cycles:  128978492 heartbeat IPC: 1.10207 cumulative IPC: 1.16049 (Simulation time: 0 hr 6 min 44 sec) 
Heartbeat CPU  0 instructions:  192000000 cycles:  129888533 heartbeat IPC: 1.09885 cumulative IPC: 1.15978 (Simulation time: 0 hr 6 min 46 sec) 
Heartbeat CPU  0 instructions:  193000003 cycles:  130795488 heartbeat IPC: 1.10259 cumulative IPC: 1.15914 (Simulation time: 0 hr 6 min 48 sec) 
Heartbeat CPU  0 instructions:  194000001 cycles:  131704243 heartbeat IPC: 1.10040 cumulative IPC: 1.15848 (Simulation time: 0 hr 6 min 50 sec) 
Heartbeat CPU  0 instructions:  195000000 cycles:  132613528 heartbeat IPC: 1.09976 cumulative IPC: 1.15783 (Simulation time: 0 hr 6 min 52 sec) 
Heartbeat CPU  0 instructions:  196000000 cycles:  133505235 heartbeat IPC: 1.12144 cumulative IPC: 1.15744 (Simulation time: 0 hr 6 min 54 sec) 
Heartbeat CPU  0 instructions:  197000000 cycles:  134391380 heartbeat IPC: 1.12848 cumulative IPC: 1.15713 (Simulation time: 0 hr 6 min 56 sec) 
Heartbeat CPU  0 instructions:  198000002 cycles:  135282126 heartbeat IPC: 1.12266 cumulative IPC: 1.15677 (Simulation time: 0 hr 6 min 58 sec) 
Heartbeat CPU  0 instructions:  199000001 cycles:  136170569 heartbeat IPC: 1.12556 cumulative IPC: 1.15645 (Simulation time: 0 hr 7 min 0 sec) 
Heartbeat CPU  0 instructions:  200000000 cycles:  137057776 heartbeat IPC: 1.12713 cumulative IPC: 1.15615 (Simulation time: 0 hr 7 min 2 sec) 
Heartbeat CPU  0 instructions:  201000001 cycles:  137943616 heartbeat IPC: 1.12887 cumulative IPC: 1.15587 (Simulation time: 0 hr 7 min 4 sec) 
Heartbeat CPU  0 instructions:  202000002 cycles:  138836562 heartbeat IPC: 1.11989 cumulative IPC: 1.15551 (Simulation time: 0 hr 7 min 6 sec) 
Heartbeat CPU  0 instructions:  203000000 cycles:  139720963 heartbeat IPC: 1.13071 cumulative IPC: 1.15526 (Simulation time: 0 hr 7 min 9 sec) 
Heartbeat CPU  0 instructions:  204000000 cycles:  140611719 heartbeat IPC: 1.12264 cumulative IPC: 1.15494 (Simulation time: 0 hr 7 min 11 sec) 
Heartbeat CPU  0 instructions:  205000003 cycles:  141501002 heartbeat IPC: 1.12450 cumulative IPC: 1.15464 (Simulation time: 0 hr 7 min 13 sec) 
Heartbeat CPU  0 instructions:  206000000 cycles:  142386514 heartbeat IPC: 1.12929 cumulative IPC: 1.15439 (Simulation time: 0 hr 7 min 15 sec) 
Heartbeat CPU  0 instructions:  207000001 cycles:  143277021 heartbeat IPC: 1.12296 cumulative IPC: 1.15409 (Simulation time: 0 hr 7 min 17 sec) 
Heartbeat CPU  0 instructions:  208000000 cycles:  144165855 heartbeat IPC: 1.12507 cumulative IPC: 1.15382 (Simulation time: 0 hr 7 min 19 sec) 
Heartbeat CPU  0 instructions:  209000001 cycles:  145056086 heartbeat IPC: 1.12331 cumulative IPC: 1.15353 (Simulation time: 0 hr 7 min 21 sec) 
Heartbeat CPU  0 instructions:  210000003 cycles:  145945988 heartbeat IPC: 1.12372 cumulative IPC: 1.15325 (Simulation time: 0 hr 7 min 23 sec) 
Heartbeat CPU  0 instructions:  211000001 cycles:  146832880 heartbeat IPC: 1.12753 cumulative IPC: 1.15301 (Simulation time: 0 hr 7 min 25 sec) 
Heartbeat CPU  0 instructions:  212000000 cycles:  147721890 heartbeat IPC: 1.12485 cumulative IPC: 1.15276 (Simulation time: 0 hr 7 min 27 sec) 
Heartbeat CPU  0 instructions:  213000001 cycles:  148733582 heartbeat IPC: 0.98844 cumulative IPC: 1.15106 (Simulation time: 0 hr 7 min 29 sec) 
Heartbeat CPU  0 instructions:  214000002 cycles:  149839147 heartbeat IPC: 0.90452 cumulative IPC: 1.14832 (Simulation time: 0 hr 7 min 32 sec) 
Heartbeat CPU  0 instructions:  215000002 cycles:  150963966 heartbeat IPC: 0.88903 cumulative IPC: 1.14541 (Simulation time: 0 hr 7 min 34 sec) 
Heartbeat CPU  0 instructions:  216000000 cycles:  152095503 heartbeat IPC: 0.88375 cumulative IPC: 1.14250 (Simulation time: 0 hr 7 min 37 sec) 
Heartbeat CPU  0 instructions:  217000002 cycles:  153240718 heartbeat IPC: 0.87320 cumulative IPC: 1.13949 (Simulation time: 0 hr 7 min 39 sec) 
Heartbeat CPU  0 instructions:  218000003 cycles:  154387385 heartbeat IPC: 0.87209 cumulative IPC: 1.13654 (Simulation time: 0 hr 7 min 42 sec) 
Heartbeat CPU  0 instructions:  219000000 cycles:  155519705 heartbeat IPC: 0.88314 cumulative IPC: 1.13381 (Simulation time: 0 hr 7 min 44 sec) 
Heartbeat CPU  0 instructions:  220000000 cycles:  156615261 heartbeat IPC: 0.91278 cumulative IPC: 1.13152 (Simulation time: 0 hr 7 min 47 sec) 
Heartbeat CPU  0 instructions:  221000000 cycles:  157712171 heartbeat IPC: 0.91165 cumulative IPC: 1.12927 (Simulation time: 0 hr 7 min 49 sec) 
Heartbeat CPU  0 instructions:  222000001 cycles:  158848603 heartbeat IPC: 0.87995 cumulative IPC: 1.12666 (Simulation time: 0 hr 7 min 52 sec) 
Heartbeat CPU  0 instructions:  223000000 cycles:  159982616 heartbeat IPC: 0.88182 cumulative IPC: 1.12412 (Simulation time: 0 hr 7 min 54 sec) 
Heartbeat CPU  0 instructions:  224000000 cycles:  161171970 heartbeat IPC: 0.84079 cumulative IPC: 1.12107 (Simulation time: 0 hr 7 min 57 sec) 
Heartbeat CPU  0 instructions:  225000002 cycles:  162311314 heartbeat IPC: 0.87770 cumulative IPC: 1.11859 (Simulation time: 0 hr 7 min 59 sec) 
Heartbeat CPU  0 instructions:  226000003 cycles:  163429965 heartbeat IPC: 0.89393 cumulative IPC: 1.11636 (Simulation time: 0 hr 8 min 2 sec) 
Heartbeat CPU  0 instructions:  227000002 cycles:  164532910 heartbeat IPC: 0.90666 cumulative IPC: 1.11433 (Simulation time: 0 hr 8 min 4 sec) 
Heartbeat CPU  0 instructions:  228000000 cycles:  165701139 heartbeat IPC: 0.85599 cumulative IPC: 1.11171 (Simulation time: 0 hr 8 min 7 sec) 
Heartbeat CPU  0 instructions:  229000001 cycles:  166848010 heartbeat IPC: 0.87194 cumulative IPC: 1.10935 (Simulation time: 0 hr 8 min 9 sec) 
Heartbeat CPU  0 instructions:  230000000 cycles:  167968392 heartbeat IPC: 0.89255 cumulative IPC: 1.10728 (Simulation time: 0 hr 8 min 12 sec) 
Heartbeat CPU  0 instructions:  231000001 cycles:  169085026 heartbeat IPC: 0.89555 cumulative IPC: 1.10528 (Simulation time: 0 hr 8 min 14 sec) 
Heartbeat CPU  0 instructions:  232000000 cycles:  170213522 heartbeat IPC: 0.88613 cumulative IPC: 1.10322 (Simulation time: 0 hr 8 min 17 sec) 
Heartbeat CPU  0 instructions:  233000001 cycles:  171359351 heartbeat IPC: 0.87273 cumulative IPC: 1.10103 (Simulation time: 0 hr 8 min 19 sec) 
Heartbeat CPU  0 instructions:  234000003 cycles:  172483197 heartbeat IPC: 0.88980 cumulative IPC: 1.09908 (Simulation time: 0 hr 8 min 22 sec) 
Heartbeat CPU  0 instructions:  235000002 cycles:  173614015 heartbeat IPC: 0.88431 cumulative IPC: 1.09711 (Simulation time: 0 hr 8 min 24 sec) 
Heartbeat CPU  0 instructions:  236000000 cycles:  174725079 heartbeat IPC: 0.90004 cumulative IPC: 1.09535 (Simulation time: 0 hr 8 min 27 sec) 
Heartbeat CPU  0 instructions:  237000003 cycles:  175830618 heartbeat IPC: 0.90454 cumulative IPC: 1.09366 (Simulation time: 0 hr 8 min 29 sec) 
Heartbeat CPU  0 instructions:  238000003 cycles:  176943455 heartbeat IPC: 0.89860 cumulative IPC: 1.09195 (Simulation time: 0 hr 8 min 32 sec) 
Heartbeat CPU  0 instructions:  239000000 cycles:  178048400 heartbeat IPC: 0.90502 cumulative IPC: 1.09032 (Simulation time: 0 hr 8 min 34 sec) 
Heartbeat CPU  0 instructions:  240000000 cycles:  179160879 heartbeat IPC: 0.89889 cumulative IPC: 1.08867 (Simulation time: 0 hr 8 min 37 sec) 
Heartbeat CPU  0 instructions:  241000000 cycles:  180263373 heartbeat IPC: 0.90703 cumulative IPC: 1.08713 (Simulation time: 0 hr 8 min 39 sec) 
Heartbeat CPU  0 instructions:  242000001 cycles:  181373123 heartbeat IPC: 0.90110 cumulative IPC: 1.08555 (Simulation time: 0 hr 8 min 42 sec) 
Heartbeat CPU  0 instructions:  243000000 cycles:  182480434 heartbeat IPC: 0.90309 cumulative IPC: 1.08402 (Simulation time: 0 hr 8 min 44 sec) 
Heartbeat CPU  0 instructions:  244000000 cycles:  183581324 heartbeat IPC: 0.90836 cumulative IPC: 1.08256 (Simulation time: 0 hr 8 min 47 sec) 
Heartbeat CPU  0 instructions:  245000002 cycles:  184692390 heartbeat IPC: 0.90004 cumulative IPC: 1.08105 (Simulation time: 0 hr 8 min 49 sec) 
Heartbeat CPU  0 instructions:  246000003 cycles:  185806578 heartbeat IPC: 0.89752 cumulative IPC: 1.07954 (Simulation time: 0 hr 8 min 51 sec) 
Heartbeat CPU  0 instructions:  247000003 cycles:  186935976 heartbeat IPC: 0.88543 cumulative IPC: 1.07793 (Simulation time: 0 hr 8 min 54 sec) 
Heartbeat CPU  0 instructions:  248000000 cycles:  188072579 heartbeat IPC: 0.87981 cumulative IPC: 1.07629 (Simulation time: 0 hr 8 min 56 sec) 
Heartbeat CPU  0 instructions:  249000003 cycles:  189217370 heartbeat IPC: 0.87352 cumulative IPC: 1.07462 (Simulation time: 0 hr 8 min 59 sec) 
Heartbeat CPU  0 instructions:  250000000 cycles:  190365003 heartbeat IPC: 0.87136 cumulative IPC: 1.07295 (Simulation time: 0 hr 9 min 1 sec) 
Heartbeat CPU  0 instructions:  251000000 cycles:  191388730 heartbeat IPC: 0.97682 cumulative IPC: 1.07225 (Simulation time: 0 hr 9 min 4 sec) 
Heartbeat CPU  0 instructions:  252000000 cycles:  192239731 heartbeat IPC: 1.17509 cumulative IPC: 1.07287 (Simulation time: 0 hr 9 min 6 sec) 
Heartbeat CPU  0 instructions:  253000002 cycles:  193096108 heartbeat IPC: 1.16771 cumulative IPC: 1.07344 (Simulation time: 0 hr 9 min 8 sec) 
Heartbeat CPU  0 instructions:  254000003 cycles:  193952186 heartbeat IPC: 1.16812 cumulative IPC: 1.07400 (Simulation time: 0 hr 9 min 10 sec) 
Heartbeat CPU  0 instructions:  255000000 cycles:  194808539 heartbeat IPC: 1.16774 cumulative IPC: 1.07456 (Simulation time: 0 hr 9 min 13 sec) 
Heartbeat CPU  0 instructions:  256000000 cycles:  195663121 heartbeat IPC: 1.17016 cumulative IPC: 1.07512 (Simulation time: 0 hr 9 min 15 sec) 
Heartbeat CPU  0 instructions:  257000000 cycles:  196517517 heartbeat IPC: 1.17042 cumulative IPC: 1.07568 (Simulation time: 0 hr 9 min 17 sec) 
Heartbeat CPU  0 instructions:  258000002 cycles:  197370063 heartbeat IPC: 1.17296 cumulative IPC: 1.07625 (Simulation time: 0 hr 9 min 19 sec) 
Heartbeat CPU  0 instructions:  259000000 cycles:  198220475 heartbeat IPC: 1.17590 cumulative IPC: 1.07682 (Simulation time: 0 hr 9 min 21 sec) 
Heartbeat CPU  0 instructions:  260000000 cycles:  199073594 heartbeat IPC: 1.17217 cumulative IPC: 1.07737 (Simulation time: 0 hr 9 min 23 sec) 
Heartbeat CPU  0 instructions:  261000001 cycles:  199929005 heartbeat IPC: 1.16903 cumulative IPC: 1.07789 (Simulation time: 0 hr 9 min 25 sec) 
Heartbeat CPU  0 instructions:  262000000 cycles:  200790461 heartbeat IPC: 1.16082 cumulative IPC: 1.07837 (Simulation time: 0 hr 9 min 27 sec) 
Heartbeat CPU  0 instructions:  263000002 cycles:  201643377 heartbeat IPC: 1.17245 cumulative IPC: 1.07890 (Simulation time: 0 hr 9 min 30 sec) 
Heartbeat CPU  0 instructions:  264000000 cycles:  202498918 heartbeat IPC: 1.16885 cumulative IPC: 1.07941 (Simulation time: 0 hr 9 min 32 sec) 
Heartbeat CPU  0 instructions:  265000002 cycles:  203350990 heartbeat IPC: 1.17361 cumulative IPC: 1.07993 (Simulation time: 0 hr 9 min 34 sec) 
Heartbeat CPU  0 instructions:  266000000 cycles:  204207808 heartbeat IPC: 1.16711 cumulative IPC: 1.08042 (Simulation time: 0 hr 9 min 36 sec) 
Heartbeat CPU  0 instructions:  267000000 cycles:  205056102 heartbeat IPC: 1.17884 cumulative IPC: 1.08096 (Simulation time: 0 hr 9 min 38 sec) 
Heartbeat CPU  0 instructions:  268000000 cycles:  205907710 heartbeat IPC: 1.17425 cumulative IPC: 1.08147 (Simulation time: 0 hr 9 min 40 sec) 
Heartbeat CPU  0 instructions:  269000000 cycles:  206754245 heartbeat IPC: 1.18129 cumulative IPC: 1.08201 (Simulation time: 0 hr 9 min 43 sec) 
Heartbeat CPU  0 instructions:  270000003 cycles:  207601997 heartbeat IPC: 1.17959 cumulative IPC: 1.08254 (Simulation time: 0 hr 9 min 45 sec) 
Heartbeat CPU  0 instructions:  271000000 cycles:  208450248 heartbeat IPC: 1.17889 cumulative IPC: 1.08305 (Simulation time: 0 hr 9 min 47 sec) 
Heartbeat CPU  0 instructions:  272000000 cycles:  209317558 heartbeat IPC: 1.15299 cumulative IPC: 1.08344 (Simulation time: 0 hr 9 min 49 sec) 
Heartbeat CPU  0 instructions:  273000000 cycles:  210168681 heartbeat IPC: 1.17492 cumulative IPC: 1.08392 (Simulation time: 0 hr 9 min 51 sec) 
Heartbeat CPU  0 instructions:  274000001 cycles:  211018907 heartbeat IPC: 1.17616 cumulative IPC: 1.08441 (Simulation time: 0 hr 9 min 53 sec) 
Heartbeat CPU  0 instructions:  275000000 cycles:  211872440 heartbeat IPC: 1.17160 cumulative IPC: 1.08487 (Simulation time: 0 hr 9 min 55 sec) 
Heartbeat CPU  0 instructions:  276000000 cycles:  212724395 heartbeat IPC: 1.17377 cumulative IPC: 1.08534 (Simulation time: 0 hr 9 min 58 sec) 
Heartbeat CPU  0 instructions:  277000002 cycles:  213579310 heartbeat IPC: 1.16971 cumulative IPC: 1.08578 (Simulation time: 0 hr 10 min 0 sec) 
Heartbeat CPU  0 instructions:  278000002 cycles:  214428896 heartbeat IPC: 1.17704 cumulative IPC: 1.08626 (Simulation time: 0 hr 10 min 2 sec) 
Heartbeat CPU  0 instructions:  279000000 cycles:  215277875 heartbeat IPC: 1.17788 cumulative IPC: 1.08673 (Simulation time: 0 hr 10 min 4 sec) 
Heartbeat CPU  0 instructions:  280000000 cycles:  216121008 heartbeat IPC: 1.18605 cumulative IPC: 1.08724 (Simulation time: 0 hr 10 min 6 sec) 
Heartbeat CPU  0 instructions:  281000002 cycles:  216969462 heartbeat IPC: 1.17862 cumulative IPC: 1.08770 (Simulation time: 0 hr 10 min 8 sec) 
Heartbeat CPU  0 instructions:  282000002 cycles:  217832157 heartbeat IPC: 1.15916 cumulative IPC: 1.08807 (Simulation time: 0 hr 10 min 10 sec) 
Heartbeat CPU  0 instructions:  283000001 cycles:  218683053 heartbeat IPC: 1.17523 cumulative IPC: 1.08851 (Simulation time: 0 hr 10 min 12 sec) 
Heartbeat CPU  0 instructions:  284000000 cycles:  219536042 heartbeat IPC: 1.17235 cumulative IPC: 1.08893 (Simulation time: 0 hr 10 min 15 sec) 
Heartbeat CPU  0 instructions:  285000003 cycles:  220395279 heartbeat IPC: 1.16383 cumulative IPC: 1.08931 (Simulation time: 0 hr 10 min 17 sec) 
Heartbeat CPU  0 instructions:  286000003 cycles:  221251000 heartbeat IPC: 1.16861 cumulative IPC: 1.08971 (Simulation time: 0 hr 10 min 19 sec) 
Heartbeat CPU  0 instructions:  287000001 cycles:  222109860 heartbeat IPC: 1.16433 cumulative IPC: 1.09008 (Simulation time: 0 hr 10 min 21 sec) 
Heartbeat CPU  0 instructions:  288000000 cycles:  222963594 heartbeat IPC: 1.17132 cumulative IPC: 1.09049 (Simulation time: 0 hr 10 min 23 sec) 
Heartbeat CPU  0 instructions:  289000001 cycles:  223810460 heartbeat IPC: 1.18083 cumulative IPC: 1.09093 (Simulation time: 0 hr 10 min 25 sec) 
Heartbeat CPU  0 instructions:  290000003 cycles:  224660765 heartbeat IPC: 1.17605 cumulative IPC: 1.09134 (Simulation time: 0 hr 10 min 27 sec) 
Heartbeat CPU  0 instructions:  291000003 cycles:  225505911 heartbeat IPC: 1.18323 cumulative IPC: 1.09179 (Simulation time: 0 hr 10 min 30 sec) 
Heartbeat CPU  0 instructions:  292000000 cycles:  226358292 heartbeat IPC: 1.17318 cumulative IPC: 1.09218 (Simulation time: 0 hr 10 min 32 sec) 
Heartbeat CPU  0 instructions:  293000002 cycles:  227221346 heartbeat IPC: 1.15868 cumulative IPC: 1.09251 (Simulation time: 0 hr 10 min 34 sec) 
Heartbeat CPU  0 instructions:  294000002 cycles:  228075631 heartbeat IPC: 1.17057 cumulative IPC: 1.09288 (Simulation time: 0 hr 10 min 36 sec) 
Heartbeat CPU  0 instructions:  295000001 cycles:  228924685 heartbeat IPC: 1.17778 cumulative IPC: 1.09329 (Simulation time: 0 hr 10 min 38 sec) 
Heartbeat CPU  0 instructions:  296000000 cycles:  229777985 heartbeat IPC: 1.17192 cumulative IPC: 1.09366 (Simulation time: 0 hr 10 min 40 sec) 
Heartbeat CPU  0 instructions:  297000003 cycles:  230624761 heartbeat IPC: 1.18095 cumulative IPC: 1.09407 (Simulation time: 0 hr 10 min 42 sec) 
Heartbeat CPU  0 instructions:  298000000 cycles:  231478756 heartbeat IPC: 1.17096 cumulative IPC: 1.09443 (Simulation time: 0 hr 10 min 45 sec) 
Heartbeat CPU  0 instructions:  299000003 cycles:  232327029 heartbeat IPC: 1.17887 cumulative IPC: 1.09483 (Simulation time: 0 hr 10 min 47 sec) 
Heartbeat CPU  0 instructions:  300000000 cycles:  233175338 heartbeat IPC: 1.17881 cumulative IPC: 1.09522 (Simulation time: 0 hr 10 min 49 sec) 
Heartbeat CPU  0 instructions:  301000000 cycles:  234021879 heartbeat IPC: 1.18128 cumulative IPC: 1.09562 (Simulation time: 0 hr 10 min 51 sec) 
Heartbeat CPU  0 instructions:  302000003 cycles:  234869730 heartbeat IPC: 1.17946 cumulative IPC: 1.09600 (Simulation time: 0 hr 10 min 53 sec) 
Heartbeat CPU  0 instructions:  303000002 cycles:  235734858 heartbeat IPC: 1.15590 cumulative IPC: 1.09628 (Simulation time: 0 hr 10 min 55 sec) 
Heartbeat CPU  0 instructions:  304000000 cycles:  236586240 heartbeat IPC: 1.17456 cumulative IPC: 1.09664 (Simulation time: 0 hr 10 min 57 sec) 
Heartbeat CPU  0 instructions:  305000003 cycles:  237437615 heartbeat IPC: 1.17457 cumulative IPC: 1.09700 (Simulation time: 0 hr 10 min 59 sec) 
Heartbeat CPU  0 instructions:  306000001 cycles:  238288817 heartbeat IPC: 1.17481 cumulative IPC: 1.09735 (Simulation time: 0 hr 11 min 2 sec) 
Heartbeat CPU  0 instructions:  307000001 cycles:  239143690 heartbeat IPC: 1.16976 cumulative IPC: 1.09768 (Simulation time: 0 hr 11 min 4 sec) 
Heartbeat CPU  0 instructions:  308000000 cycles:  239995665 heartbeat IPC: 1.17374 cumulative IPC: 1.09802 (Simulation time: 0 hr 11 min 6 sec) 
Heartbeat CPU  0 instructions:  309000001 cycles:  240848775 heartbeat IPC: 1.17218 cumulative IPC: 1.09835 (Simulation time: 0 hr 11 min 8 sec) 
Heartbeat CPU  0 instructions:  310000000 cycles:  241694449 heartbeat IPC: 1.18249 cumulative IPC: 1.09872 (Simulation time: 0 hr 11 min 10 sec) 
Heartbeat CPU  0 instructions:  311000000 cycles:  242542409 heartbeat IPC: 1.17930 cumulative IPC: 1.09908 (Simulation time: 0 hr 11 min 12 sec) 
Heartbeat CPU  0 instructions:  312000000 cycles:  243388326 heartbeat IPC: 1.18215 cumulative IPC: 1.09944 (Simulation time: 0 hr 11 min 14 sec) 
Heartbeat CPU  0 instructions:  313000003 cycles:  244237710 heartbeat IPC: 1.17733 cumulative IPC: 1.09978 (Simulation time: 0 hr 11 min 17 sec) 
Heartbeat CPU  0 instructions:  314000001 cycles:  245101923 heartbeat IPC: 1.15712 cumulative IPC: 1.10004 (Simulation time: 0 hr 11 min 19 sec) 
Heartbeat CPU  0 instructions:  315000000 cycles:  245954105 heartbeat IPC: 1.17346 cumulative IPC: 1.10036 (Simulation time: 0 hr 11 min 21 sec) 
Heartbeat CPU  0 instructions:  316000000 cycles:  246803521 heartbeat IPC: 1.17728 cumulative IPC: 1.10069 (Simulation time: 0 hr 11 min 23 sec) 
Heartbeat CPU  0 instructions:  317000003 cycles:  247660428 heartbeat IPC: 1.16699 cumulative IPC: 1.10098 (Simulation time: 0 hr 11 min 25 sec) 
Heartbeat CPU  0 instructions:  318000002 cycles:  248513333 heartbeat IPC: 1.17246 cumulative IPC: 1.10129 (Simulation time: 0 hr 11 min 27 sec) 
Heartbeat CPU  0 instructions:  319000002 cycles:  249363937 heartbeat IPC: 1.17564 cumulative IPC: 1.10161 (Simulation time: 0 hr 11 min 29 sec) 
Heartbeat CPU  0 instructions:  320000000 cycles:  250214154 heartbeat IPC: 1.17617 cumulative IPC: 1.10192 (Simulation time: 0 hr 11 min 31 sec) 
Heartbeat CPU  0 instructions:  321000002 cycles:  251060416 heartbeat IPC: 1.18167 cumulative IPC: 1.10226 (Simulation time: 0 hr 11 min 34 sec) 
Heartbeat CPU  0 instructions:  322000002 cycles:  251908883 heartbeat IPC: 1.17860 cumulative IPC: 1.10258 (Simulation time: 0 hr 11 min 36 sec) 
Heartbeat CPU  0 instructions:  323000000 cycles:  252758165 heartbeat IPC: 1.17746 cumulative IPC: 1.10290 (Simulation time: 0 hr 11 min 38 sec) 
Heartbeat CPU  0 instructions:  324000000 cycles:  253622388 heartbeat IPC: 1.15711 cumulative IPC: 1.10313 (Simulation time: 0 hr 11 min 40 sec) 
Heartbeat CPU  0 instructions:  325000002 cycles:  254473396 heartbeat IPC: 1.17508 cumulative IPC: 1.10343 (Simulation time: 0 hr 11 min 42 sec) 
Heartbeat CPU  0 instructions:  326000000 cycles:  255328557 heartbeat IPC: 1.16937 cumulative IPC: 1.10370 (Simulation time: 0 hr 11 min 44 sec) 
Heartbeat CPU  0 instructions:  327000002 cycles:  256178638 heartbeat IPC: 1.17636 cumulative IPC: 1.10400 (Simulation time: 0 hr 11 min 46 sec) 
Heartbeat CPU  0 instructions:  328000000 cycles:  257033460 heartbeat IPC: 1.16983 cumulative IPC: 1.10428 (Simulation time: 0 hr 11 min 49 sec) 
Heartbeat CPU  0 instructions:  329000001 cycles:  257886905 heartbeat IPC: 1.17172 cumulative IPC: 1.10455 (Simulation time: 0 hr 11 min 51 sec) 
Heartbeat CPU  0 instructions:  330000001 cycles:  258739674 heartbeat IPC: 1.17265 cumulative IPC: 1.10483 (Simulation time: 0 hr 11 min 53 sec) 
Heartbeat CPU  0 instructions:  331000001 cycles:  259587127 heartbeat IPC: 1.18001 cumulative IPC: 1.10514 (Simulation time: 0 hr 11 min 55 sec) 
Heartbeat CPU  0 instructions:  332000000 cycles:  260434809 heartbeat IPC: 1.17969 cumulative IPC: 1.10544 (Simulation time: 0 hr 11 min 57 sec) 
Heartbeat CPU  0 instructions:  333000001 cycles:  261283711 heartbeat IPC: 1.17799 cumulative IPC: 1.10573 (Simulation time: 0 hr 11 min 59 sec) 
Heartbeat CPU  0 instructions:  334000003 cycles:  262128869 heartbeat IPC: 1.18321 cumulative IPC: 1.10604 (Simulation time: 0 hr 12 min 1 sec) 
Heartbeat CPU  0 instructions:  335000002 cycles:  263001234 heartbeat IPC: 1.14631 cumulative IPC: 1.10621 (Simulation time: 0 hr 12 min 4 sec) 
Heartbeat CPU  0 instructions:  336000000 cycles:  263848973 heartbeat IPC: 1.17961 cumulative IPC: 1.10650 (Simulation time: 0 hr 12 min 6 sec) 
Heartbeat CPU  0 instructions:  337000002 cycles:  264702737 heartbeat IPC: 1.17129 cumulative IPC: 1.10676 (Simulation time: 0 hr 12 min 8 sec) 
Heartbeat CPU  0 instructions:  338000002 cycles:  265555016 heartbeat IPC: 1.17332 cumulative IPC: 1.10702 (Simulation time: 0 hr 12 min 10 sec) 
Heartbeat CPU  0 instructions:  339000002 cycles:  266408851 heartbeat IPC: 1.17119 cumulative IPC: 1.10727 (Simulation time: 0 hr 12 min 12 sec) 
Heartbeat CPU  0 instructions:  340000000 cycles:  267263866 heartbeat IPC: 1.16957 cumulative IPC: 1.10752 (Simulation time: 0 hr 12 min 14 sec) 
Heartbeat CPU  0 instructions:  341000001 cycles:  268114620 heartbeat IPC: 1.17543 cumulative IPC: 1.10779 (Simulation time: 0 hr 12 min 16 sec) 
Heartbeat CPU  0 instructions:  342000003 cycles:  268958885 heartbeat IPC: 1.18446 cumulative IPC: 1.10808 (Simulation time: 0 hr 12 min 19 sec) 
Heartbeat CPU  0 instructions:  343000003 cycles:  269808114 heartbeat IPC: 1.17754 cumulative IPC: 1.10835 (Simulation time: 0 hr 12 min 21 sec) 
Heartbeat CPU  0 instructions:  344000000 cycles:  270655542 heartbeat IPC: 1.18004 cumulative IPC: 1.10863 (Simulation time: 0 hr 12 min 23 sec) 
Heartbeat CPU  0 instructions:  345000001 cycles:  271518907 heartbeat IPC: 1.15826 cumulative IPC: 1.10882 (Simulation time: 0 hr 12 min 25 sec) 
Heartbeat CPU  0 instructions:  346000003 cycles:  272372354 heartbeat IPC: 1.17172 cumulative IPC: 1.10906 (Simulation time: 0 hr 12 min 27 sec) 
Heartbeat CPU  0 instructions:  347000003 cycles:  273228318 heartbeat IPC: 1.16827 cumulative IPC: 1.10929 (Simulation time: 0 hr 12 min 29 sec) 
Heartbeat CPU  0 instructions:  348000000 cycles:  274081314 heartbeat IPC: 1.17233 cumulative IPC: 1.10953 (Simulation time: 0 hr 12 min 31 sec) 
Heartbeat CPU  0 instructions:  349000000 cycles:  274933765 heartbeat IPC: 1.17309 cumulative IPC: 1.10977 (Simulation time: 0 hr 12 min 33 sec) 
Heartbeat CPU  0 instructions:  350000003 cycles:  275787304 heartbeat IPC: 1.17160 cumulative IPC: 1.11001 (Simulation time: 0 hr 12 min 36 sec) 
Heartbeat CPU  0 instructions:  351000001 cycles:  276642403 heartbeat IPC: 1.16945 cumulative IPC: 1.11023 (Simulation time: 0 hr 12 min 38 sec) 
Heartbeat CPU  0 instructions:  352000000 cycles:  277491454 heartbeat IPC: 1.17778 cumulative IPC: 1.11048 (Simulation time: 0 hr 12 min 40 sec) 
Heartbeat CPU  0 instructions:  353000003 cycles:  278340308 heartbeat IPC: 1.17806 cumulative IPC: 1.11074 (Simulation time: 0 hr 12 min 42 sec) 
Heartbeat CPU  0 instructions:  354000003 cycles:  279190782 heartbeat IPC: 1.17581 cumulative IPC: 1.11098 (Simulation time: 0 hr 12 min 44 sec) 
Heartbeat CPU  0 instructions:  355000000 cycles:  280035243 heartbeat IPC: 1.18418 cumulative IPC: 1.11125 (Simulation time: 0 hr 12 min 46 sec) 
Heartbeat CPU  0 instructions:  356000000 cycles:  280905165 heartbeat IPC: 1.14953 cumulative IPC: 1.11139 (Simulation time: 0 hr 12 min 48 sec) 
Heartbeat CPU  0 instructions:  357000001 cycles:  281753628 heartbeat IPC: 1.17860 cumulative IPC: 1.11164 (Simulation time: 0 hr 12 min 51 sec) 
Heartbeat CPU  0 instructions:  358000003 cycles:  282600615 heartbeat IPC: 1.18066 cumulative IPC: 1.11189 (Simulation time: 0 hr 12 min 53 sec) 
Heartbeat CPU  0 instructions:  359000000 cycles:  283453231 heartbeat IPC: 1.17286 cumulative IPC: 1.11211 (Simulation time: 0 hr 12 min 55 sec) 
Heartbeat CPU  0 instructions:  360000000 cycles:  284307803 heartbeat IPC: 1.17018 cumulative IPC: 1.11233 (Simulation time: 0 hr 12 min 57 sec) 
Heartbeat CPU  0 instructions:  361000002 cycles:  285160319 heartbeat IPC: 1.17300 cumulative IPC: 1.11255 (Simulation time: 0 hr 12 min 59 sec) 
Heartbeat CPU  0 instructions:  362000002 cycles:  286010639 heartbeat IPC: 1.17603 cumulative IPC: 1.11278 (Simulation time: 0 hr 13 min 1 sec) 
Heartbeat CPU  0 instructions:  363000002 cycles:  286857038 heartbeat IPC: 1.18148 cumulative IPC: 1.11302 (Simulation time: 0 hr 13 min 3 sec) 
Heartbeat CPU  0 instructions:  364000000 cycles:  287703068 heartbeat IPC: 1.18199 cumulative IPC: 1.11327 (Simulation time: 0 hr 13 min 6 sec) 
Heartbeat CPU  0 instructions:  365000001 cycles:  288551530 heartbeat IPC: 1.17860 cumulative IPC: 1.11350 (Simulation time: 0 hr 13 min 8 sec) 
Heartbeat CPU  0 instructions:  366000001 cycles:  289410992 heartbeat IPC: 1.16352 cumulative IPC: 1.11368 (Simulation time: 0 hr 13 min 10 sec) 
Heartbeat CPU  0 instructions:  367000003 cycles:  290265533 heartbeat IPC: 1.17022 cumulative IPC: 1.11388 (Simulation time: 0 hr 13 min 12 sec) 
Heartbeat CPU  0 instructions:  368000000 cycles:  291119433 heartbeat IPC: 1.17109 cumulative IPC: 1.11409 (Simulation time: 0 hr 13 min 14 sec) 
Heartbeat CPU  0 instructions:  369000001 cycles:  291975041 heartbeat IPC: 1.16876 cumulative IPC: 1.11428 (Simulation time: 0 hr 13 min 16 sec) 
Heartbeat CPU  0 instructions:  370000002 cycles:  292825489 heartbeat IPC: 1.17585 cumulative IPC: 1.11450 (Simulation time: 0 hr 13 min 18 sec) 
Heartbeat CPU  0 instructions:  371000002 cycles:  293679963 heartbeat IPC: 1.17031 cumulative IPC: 1.11469 (Simulation time: 0 hr 13 min 21 sec) 
Heartbeat CPU  0 instructions:  372000000 cycles:  294531869 heartbeat IPC: 1.17384 cumulative IPC: 1.11490 (Simulation time: 0 hr 13 min 23 sec) 
Heartbeat CPU  0 instructions:  373000002 cycles:  295382191 heartbeat IPC: 1.17603 cumulative IPC: 1.11511 (Simulation time: 0 hr 13 min 25 sec) 
Heartbeat CPU  0 instructions:  374000001 cycles:  296227059 heartbeat IPC: 1.18362 cumulative IPC: 1.11535 (Simulation time: 0 hr 13 min 27 sec) 
Heartbeat CPU  0 instructions:  375000000 cycles:  297074208 heartbeat IPC: 1.18043 cumulative IPC: 1.11557 (Simulation time: 0 hr 13 min 29 sec) 
Heartbeat CPU  0 instructions:  376000000 cycles:  297923361 heartbeat IPC: 1.17764 cumulative IPC: 1.11578 (Simulation time: 0 hr 13 min 31 sec) 
Heartbeat CPU  0 instructions:  377000002 cycles:  298789996 heartbeat IPC: 1.15389 cumulative IPC: 1.11592 (Simulation time: 0 hr 13 min 33 sec) 
Heartbeat CPU  0 instructions:  378000000 cycles:  299644276 heartbeat IPC: 1.17057 cumulative IPC: 1.11610 (Simulation time: 0 hr 13 min 35 sec) 
Heartbeat CPU  0 instructions:  379000000 cycles:  300494243 heartbeat IPC: 1.17652 cumulative IPC: 1.11631 (Simulation time: 0 hr 13 min 38 sec) 
Heartbeat CPU  0 instructions:  380000000 cycles:  301344819 heartbeat IPC: 1.17567 cumulative IPC: 1.11651 (Simulation time: 0 hr 13 min 40 sec) 
Heartbeat CPU  0 instructions:  381000002 cycles:  302197241 heartbeat IPC: 1.17313 cumulative IPC: 1.11670 (Simulation time: 0 hr 13 min 42 sec) 
Heartbeat CPU  0 instructions:  382000000 cycles:  303054112 heartbeat IPC: 1.16703 cumulative IPC: 1.11687 (Simulation time: 0 hr 13 min 44 sec) 
Heartbeat CPU  0 instructions:  383000000 cycles:  303906717 heartbeat IPC: 1.17288 cumulative IPC: 1.11706 (Simulation time: 0 hr 13 min 46 sec) 
Heartbeat CPU  0 instructions:  384000000 cycles:  304757899 heartbeat IPC: 1.17484 cumulative IPC: 1.11726 (Simulation time: 0 hr 13 min 48 sec) 
Heartbeat CPU  0 instructions:  385000001 cycles:  305602419 heartbeat IPC: 1.18411 cumulative IPC: 1.11748 (Simulation time: 0 hr 13 min 50 sec) 
Heartbeat CPU  0 instructions:  386000002 cycles:  306454829 heartbeat IPC: 1.17315 cumulative IPC: 1.11766 (Simulation time: 0 hr 13 min 53 sec) 
Heartbeat CPU  0 instructions:  387000000 cycles:  307319948 heartbeat IPC: 1.15591 cumulative IPC: 1.11779 (Simulation time: 0 hr 13 min 55 sec) 
Heartbeat CPU  0 instructions:  388000000 cycles:  308174353 heartbeat IPC: 1.17041 cumulative IPC: 1.11797 (Simulation time: 0 hr 13 min 57 sec) 
Heartbeat CPU  0 instructions:  389000003 cycles:  309026365 heartbeat IPC: 1.17370 cumulative IPC: 1.11815 (Simulation time: 0 hr 13 min 59 sec) 
Heartbeat CPU  0 instructions:  390000003 cycles:  309881654 heartbeat IPC: 1.16920 cumulative IPC: 1.11832 (Simulation time: 0 hr 14 min 1 sec) 
Heartbeat CPU  0 instructions:  391000003 cycles:  310734407 heartbeat IPC: 1.17267 cumulative IPC: 1.11850 (Simulation time: 0 hr 14 min 3 sec) 
Heartbeat CPU  0 instructions:  392000000 cycles:  311588645 heartbeat IPC: 1.17063 cumulative IPC: 1.11867 (Simulation time: 0 hr 14 min 5 sec) 
Heartbeat CPU  0 instructions:  393000003 cycles:  312443755 heartbeat IPC: 1.16944 cumulative IPC: 1.11883 (Simulation time: 0 hr 14 min 8 sec) 
Heartbeat CPU  0 instructions:  394000003 cycles:  313290958 heartbeat IPC: 1.18035 cumulative IPC: 1.11903 (Simulation time: 0 hr 14 min 10 sec) 
Heartbeat CPU  0 instructions:  395000003 cycles:  314139964 heartbeat IPC: 1.17785 cumulative IPC: 1.11922 (Simulation time: 0 hr 14 min 12 sec) 
Heartbeat CPU  0 instructions:  396000000 cycles:  314988472 heartbeat IPC: 1.17854 cumulative IPC: 1.11941 (Simulation time: 0 hr 14 min 14 sec) 
Heartbeat CPU  0 instructions:  397000001 cycles:  315839489 heartbeat IPC: 1.17507 cumulative IPC: 1.11959 (Simulation time: 0 hr 14 min 16 sec) 
Heartbeat CPU  0 instructions:  398000001 cycles:  316591129 heartbeat IPC: 1.33042 cumulative IPC: 1.12018 (Simulation time: 0 hr 14 min 18 sec) 
Heartbeat CPU  0 instructions:  399000000 cycles:  317556999 heartbeat IPC: 1.03533 cumulative IPC: 1.11988 (Simulation time: 0 hr 14 min 20 sec) 
Heartbeat CPU  0 instructions:  400000000 cycles:  318528312 heartbeat IPC: 1.02953 cumulative IPC: 1.11955 (Simulation time: 0 hr 14 min 22 sec) 
Heartbeat CPU  0 instructions:  401000001 cycles:  319493496 heartbeat IPC: 1.03607 cumulative IPC: 1.11925 (Simulation time: 0 hr 14 min 25 sec) 
Heartbeat CPU  0 instructions:  402000003 cycles:  320460719 heartbeat IPC: 1.03389 cumulative IPC: 1.11894 (Simulation time: 0 hr 14 min 27 sec) 
Heartbeat CPU  0 instructions:  403000000 cycles:  321424340 heartbeat IPC: 1.03775 cumulative IPC: 1.11866 (Simulation time: 0 hr 14 min 29 sec) 
Heartbeat CPU  0 instructions:  404000000 cycles:  322390664 heartbeat IPC: 1.03485 cumulative IPC: 1.11836 (Simulation time: 0 hr 14 min 31 sec) 
Heartbeat CPU  0 instructions:  405000003 cycles:  323353267 heartbeat IPC: 1.03885 cumulative IPC: 1.11808 (Simulation time: 0 hr 14 min 33 sec) 
Heartbeat CPU  0 instructions:  406000003 cycles:  324319824 heartbeat IPC: 1.03460 cumulative IPC: 1.11778 (Simulation time: 0 hr 14 min 36 sec) 
Heartbeat CPU  0 instructions:  407000000 cycles:  325284798 heartbeat IPC: 1.03629 cumulative IPC: 1.11750 (Simulation time: 0 hr 14 min 38 sec) 
Heartbeat CPU  0 instructions:  408000000 cycles:  326252698 heartbeat IPC: 1.03316 cumulative IPC: 1.11720 (Simulation time: 0 hr 14 min 40 sec) 
Heartbeat CPU  0 instructions:  409000002 cycles:  327214194 heartbeat IPC: 1.04005 cumulative IPC: 1.11693 (Simulation time: 0 hr 14 min 42 sec) 
Heartbeat CPU  0 instructions:  410000002 cycles:  328177549 heartbeat IPC: 1.03804 cumulative IPC: 1.11666 (Simulation time: 0 hr 14 min 44 sec) 
Heartbeat CPU  0 instructions:  411000000 cycles:  329144614 heartbeat IPC: 1.03405 cumulative IPC: 1.11637 (Simulation time: 0 hr 14 min 47 sec) 
Heartbeat CPU  0 instructions:  412000000 cycles:  330107841 heartbeat IPC: 1.03818 cumulative IPC: 1.11610 (Simulation time: 0 hr 14 min 49 sec) 
Heartbeat CPU  0 instructions:  413000001 cycles:  331074733 heartbeat IPC: 1.03424 cumulative IPC: 1.11582 (Simulation time: 0 hr 14 min 51 sec) 
Heartbeat CPU  0 instructions:  414000000 cycles:  332040017 heartbeat IPC: 1.03596 cumulative IPC: 1.11555 (Simulation time: 0 hr 14 min 53 sec) 
Heartbeat CPU  0 instructions:  415000002 cycles:  333007340 heartbeat IPC: 1.03378 cumulative IPC: 1.11527 (Simulation time: 0 hr 14 min 55 sec) 
Heartbeat CPU  0 instructions:  416000000 cycles:  333970419 heartbeat IPC: 1.03833 cumulative IPC: 1.11500 (Simulation time: 0 hr 14 min 58 sec) 
Heartbeat CPU  0 instructions:  417000001 cycles:  334937131 heartbeat IPC: 1.03444 cumulative IPC: 1.11473 (Simulation time: 0 hr 15 min 0 sec) 
Heartbeat CPU  0 instructions:  418000002 cycles:  335902139 heartbeat IPC: 1.03626 cumulative IPC: 1.11447 (Simulation time: 0 hr 15 min 2 sec) 
Heartbeat CPU  0 instructions:  419000003 cycles:  336868743 heartbeat IPC: 1.03455 cumulative IPC: 1.11420 (Simulation time: 0 hr 15 min 4 sec) 
Heartbeat CPU  0 instructions:  420000000 cycles:  337830880 heartbeat IPC: 1.03935 cumulative IPC: 1.11394 (Simulation time: 0 hr 15 min 6 sec) 
Heartbeat CPU  0 instructions:  421000002 cycles:  338793933 heartbeat IPC: 1.03837 cumulative IPC: 1.11369 (Simulation time: 0 hr 15 min 9 sec) 
Heartbeat CPU  0 instructions:  422000000 cycles:  339760957 heartbeat IPC: 1.03410 cumulative IPC: 1.11343 (Simulation time: 0 hr 15 min 11 sec) 
Heartbeat CPU  0 instructions:  423000003 cycles:  340723571 heartbeat IPC: 1.03884 cumulative IPC: 1.11318 (Simulation time: 0 hr 15 min 13 sec) 
Heartbeat CPU  0 instructions:  424000000 cycles:  341686079 heartbeat IPC: 1.03895 cumulative IPC: 1.11293 (Simulation time: 0 hr 15 min 15 sec) 
Heartbeat CPU  0 instructions:  425000000 cycles:  342650841 heartbeat IPC: 1.03653 cumulative IPC: 1.11268 (Simulation time: 0 hr 15 min 17 sec) 
Heartbeat CPU  0 instructions:  426000000 cycles:  343616851 heartbeat IPC: 1.03519 cumulative IPC: 1.11243 (Simulation time: 0 hr 15 min 20 sec) 
Heartbeat CPU  0 instructions:  427000003 cycles:  344582620 heartbeat IPC: 1.03545 cumulative IPC: 1.11217 (Simulation time: 0 hr 15 min 22 sec) 
Heartbeat CPU  0 instructions:  428000000 cycles:  345549517 heartbeat IPC: 1.03423 cumulative IPC: 1.11192 (Simulation time: 0 hr 15 min 24 sec) 
Heartbeat CPU  0 instructions:  429000000 cycles:  346512971 heartbeat IPC: 1.03793 cumulative IPC: 1.11168 (Simulation time: 0 hr 15 min 26 sec) 
Heartbeat CPU  0 instructions:  430000003 cycles:  347476060 heartbeat IPC: 1.03833 cumulative IPC: 1.11144 (Simulation time: 0 hr 15 min 28 sec) 
Heartbeat CPU  0 instructions:  431000003 cycles:  348440429 heartbeat IPC: 1.03695 cumulative IPC: 1.11120 (Simulation time: 0 hr 15 min 31 sec) 
Heartbeat CPU  0 instructions:  432000000 cycles:  349404746 heartbeat IPC: 1.03700 cumulative IPC: 1.11096 (Simulation time: 0 hr 15 min 33 sec) 
Heartbeat CPU  0 instructions:  433000001 cycles:  350369669 heartbeat IPC: 1.03635 cumulative IPC: 1.11072 (Simulation time: 0 hr 15 min 35 sec) 
Heartbeat CPU  0 instructions:  434000003 cycles:  351335020 heartbeat IPC: 1.03589 cumulative IPC: 1.11048 (Simulation time: 0 hr 15 min 37 sec) 
Heartbeat CPU  0 instructions:  435000001 cycles:  352300494 heartbeat IPC: 1.03576 cumulative IPC: 1.11024 (Simulation time: 0 hr 15 min 39 sec) 
Heartbeat CPU  0 instructions:  436000000 cycles:  353266686 heartbeat IPC: 1.03499 cumulative IPC: 1.11000 (Simulation time: 0 hr 15 min 42 sec) 
Heartbeat CPU  0 instructions:  437000000 cycles:  354232788 heartbeat IPC: 1.03509 cumulative IPC: 1.10976 (Simulation time: 0 hr 15 min 44 sec) 
Heartbeat CPU  0 instructions:  438000001 cycles:  355195741 heartbeat IPC: 1.03847 cumulative IPC: 1.10953 (Simulation time: 0 hr 15 min 46 sec) 
Heartbeat CPU  0 instructions:  439000002 cycles:  356159091 heartbeat IPC: 1.03805 cumulative IPC: 1.10931 (Simulation time: 0 hr 15 min 48 sec) 
Heartbeat CPU  0 instructions:  440000000 cycles:  357125037 heartbeat IPC: 1.03525 cumulative IPC: 1.10908 (Simulation time: 0 hr 15 min 50 sec) 
Heartbeat CPU  0 instructions:  441000001 cycles:  358088652 heartbeat IPC: 1.03776 cumulative IPC: 1.10885 (Simulation time: 0 hr 15 min 52 sec) 
Heartbeat CPU  0 instructions:  442000001 cycles:  359052647 heartbeat IPC: 1.03735 cumulative IPC: 1.10863 (Simulation time: 0 hr 15 min 55 sec) 
Heartbeat CPU  0 instructions:  443000002 cycles:  360016494 heartbeat IPC: 1.03751 cumulative IPC: 1.10841 (Simulation time: 0 hr 15 min 57 sec) 
Heartbeat CPU  0 instructions:  444000000 cycles:  360982093 heartbeat IPC: 1.03562 cumulative IPC: 1.10818 (Simulation time: 0 hr 15 min 59 sec) 
Heartbeat CPU  0 instructions:  445000001 cycles:  361949297 heartbeat IPC: 1.03391 cumulative IPC: 1.10795 (Simulation time: 0 hr 16 min 1 sec) 
Heartbeat CPU  0 instructions:  446000001 cycles:  362913821 heartbeat IPC: 1.03678 cumulative IPC: 1.10773 (Simulation time: 0 hr 16 min 4 sec) 
Heartbeat CPU  0 instructions:  447000002 cycles:  363878312 heartbeat IPC: 1.03682 cumulative IPC: 1.10751 (Simulation time: 0 hr 16 min 6 sec) 
Heartbeat CPU  0 instructions:  448000000 cycles:  364843890 heartbeat IPC: 1.03565 cumulative IPC: 1.10729 (Simulation time: 0 hr 16 min 8 sec) 
Heartbeat CPU  0 instructions:  449000003 cycles:  365805969 heartbeat IPC: 1.03942 cumulative IPC: 1.10708 (Simulation time: 0 hr 16 min 10 sec) 
Heartbeat CPU  0 instructions:  450000002 cycles:  366773669 heartbeat IPC: 1.03338 cumulative IPC: 1.10686 (Simulation time: 0 hr 16 min 12 sec) 
Heartbeat CPU  0 instructions:  451000000 cycles:  367739105 heartbeat IPC: 1.03580 cumulative IPC: 1.10664 (Simulation time: 0 hr 16 min 15 sec) 
Heartbeat CPU  0 instructions:  452000000 cycles:  368701916 heartbeat IPC: 1.03863 cumulative IPC: 1.10644 (Simulation time: 0 hr 16 min 17 sec) 
Heartbeat CPU  0 instructions:  453000003 cycles:  369666899 heartbeat IPC: 1.03629 cumulative IPC: 1.10622 (Simulation time: 0 hr 16 min 19 sec) 
Heartbeat CPU  0 instructions:  454000000 cycles:  370629668 heartbeat IPC: 1.03867 cumulative IPC: 1.10602 (Simulation time: 0 hr 16 min 21 sec) 
Heartbeat CPU  0 instructions:  455000002 cycles:  371594104 heartbeat IPC: 1.03688 cumulative IPC: 1.10581 (Simulation time: 0 hr 16 min 23 sec) 
Heartbeat CPU  0 instructions:  456000000 cycles:  372557587 heartbeat IPC: 1.03790 cumulative IPC: 1.10561 (Simulation time: 0 hr 16 min 26 sec) 
Heartbeat CPU  0 instructions:  457000000 cycles:  373523902 heartbeat IPC: 1.03486 cumulative IPC: 1.10540 (Simulation time: 0 hr 16 min 28 sec) 
Heartbeat CPU  0 instructions:  458000002 cycles:  374489088 heartbeat IPC: 1.03607 cumulative IPC: 1.10519 (Simulation time: 0 hr 16 min 30 sec) 
Heartbeat CPU  0 instructions:  459000003 cycles:  375452679 heartbeat IPC: 1.03779 cumulative IPC: 1.10499 (Simulation time: 0 hr 16 min 32 sec) 
Heartbeat CPU  0 instructions:  460000000 cycles:  376402726 heartbeat IPC: 1.05258 cumulative IPC: 1.10484 (Simulation time: 0 hr 16 min 34 sec) 
Heartbeat CPU  0 instructions:  461000000 cycles:  377301866 heartbeat IPC: 1.11217 cumulative IPC: 1.10486 (Simulation time: 0 hr 16 min 36 sec) 
Heartbeat CPU  0 instructions:  462000000 cycles:  378200482 heartbeat IPC: 1.11282 cumulative IPC: 1.10488 (Simulation time: 0 hr 16 min 38 sec) 
Heartbeat CPU  0 instructions:  463000001 cycles:  379097243 heartbeat IPC: 1.11513 cumulative IPC: 1.10491 (Simulation time: 0 hr 16 min 40 sec) 
Heartbeat CPU  0 instructions:  464000000 cycles:  379993661 heartbeat IPC: 1.11555 cumulative IPC: 1.10494 (Simulation time: 0 hr 16 min 42 sec) 
Heartbeat CPU  0 instructions:  465000002 cycles:  380893065 heartbeat IPC: 1.11185 cumulative IPC: 1.10496 (Simulation time: 0 hr 16 min 45 sec) 
Heartbeat CPU  0 instructions:  466000000 cycles:  381791056 heartbeat IPC: 1.11359 cumulative IPC: 1.10498 (Simulation time: 0 hr 16 min 47 sec) 
Heartbeat CPU  0 instructions:  467000001 cycles:  382687626 heartbeat IPC: 1.11536 cumulative IPC: 1.10501 (Simulation time: 0 hr 16 min 49 sec) 
Heartbeat CPU  0 instructions:  468000000 cycles:  383582606 heartbeat IPC: 1.11734 cumulative IPC: 1.10504 (Simulation time: 0 hr 16 min 51 sec) 
Heartbeat CPU  0 instructions:  469000003 cycles:  384472737 heartbeat IPC: 1.12343 cumulative IPC: 1.10509 (Simulation time: 0 hr 16 min 53 sec) 
Heartbeat CPU  0 instructions:  470000001 cycles:  385355889 heartbeat IPC: 1.13231 cumulative IPC: 1.10516 (Simulation time: 0 hr 16 min 55 sec) 
Heartbeat CPU  0 instructions:  471000001 cycles:  386241707 heartbeat IPC: 1.12890 cumulative IPC: 1.10523 (Simulation time: 0 hr 16 min 57 sec) 
Heartbeat CPU  0 instructions:  472000000 cycles:  387127384 heartbeat IPC: 1.12908 cumulative IPC: 1.10529 (Simulation time: 0 hr 16 min 59 sec) 
Heartbeat CPU  0 instructions:  473000002 cycles:  388014375 heartbeat IPC: 1.12741 cumulative IPC: 1.10535 (Simulation time: 0 hr 17 min 1 sec) 
Heartbeat CPU  0 instructions:  474000001 cycles:  388897324 heartbeat IPC: 1.13257 cumulative IPC: 1.10542 (Simulation time: 0 hr 17 min 3 sec) 
Heartbeat CPU  0 instructions:  475000002 cycles:  389782968 heartbeat IPC: 1.12912 cumulative IPC: 1.10548 (Simulation time: 0 hr 17 min 5 sec) 
Heartbeat CPU  0 instructions:  476000000 cycles:  390669209 heartbeat IPC: 1.12836 cumulative IPC: 1.10554 (Simulation time: 0 hr 17 min 7 sec) 
Heartbeat CPU  0 instructions:  477000002 cycles:  391555963 heartbeat IPC: 1.12771 cumulative IPC: 1.10560 (Simulation time: 0 hr 17 min 9 sec) 
Heartbeat CPU  0 instructions:  478000000 cycles:  392450744 heartbeat IPC: 1.11759 cumulative IPC: 1.10563 (Simulation time: 0 hr 17 min 11 sec) 
Heartbeat CPU  0 instructions:  479000002 cycles:  393347288 heartbeat IPC: 1.11540 cumulative IPC: 1.10565 (Simulation time: 0 hr 17 min 13 sec) 
Heartbeat CPU  0 instructions:  480000000 cycles:  394243021 heartbeat IPC: 1.11640 cumulative IPC: 1.10568 (Simulation time: 0 hr 17 min 15 sec) 
Heartbeat CPU  0 instructions:  481000003 cycles:  395142026 heartbeat IPC: 1.11234 cumulative IPC: 1.10570 (Simulation time: 0 hr 17 min 17 sec) 
Heartbeat CPU  0 instructions:  482000003 cycles:  396034996 heartbeat IPC: 1.11986 cumulative IPC: 1.10574 (Simulation time: 0 hr 17 min 20 sec) 
Heartbeat CPU  0 instructions:  483000003 cycles:  396933166 heartbeat IPC: 1.11337 cumulative IPC: 1.10575 (Simulation time: 0 hr 17 min 22 sec) 
Heartbeat CPU  0 instructions:  484000000 cycles:  397825641 heartbeat IPC: 1.12048 cumulative IPC: 1.10579 (Simulation time: 0 hr 17 min 24 sec) 
Heartbeat CPU  0 instructions:  485000002 cycles:  398718695 heartbeat IPC: 1.11976 cumulative IPC: 1.10583 (Simulation time: 0 hr 17 min 26 sec) 
Heartbeat CPU  0 instructions:  486000000 cycles:  399630681 heartbeat IPC: 1.09651 cumulative IPC: 1.10580 (Simulation time: 0 hr 17 min 28 sec) 
Heartbeat CPU  0 instructions:  487000000 cycles:  400768306 heartbeat IPC: 0.87902 cumulative IPC: 1.10507 (Simulation time: 0 hr 17 min 30 sec) 
Heartbeat CPU  0 instructions:  488000000 cycles:  401891186 heartbeat IPC: 0.89057 cumulative IPC: 1.10438 (Simulation time: 0 hr 17 min 33 sec) 
Heartbeat CPU  0 instructions:  489000000 cycles:  403062994 heartbeat IPC: 0.85338 cumulative IPC: 1.10355 (Simulation time: 0 hr 17 min 35 sec) 
Heartbeat CPU  0 instructions:  490000003 cycles:  404234356 heartbeat IPC: 0.85371 cumulative IPC: 1.10272 (Simulation time: 0 hr 17 min 38 sec) 
Heartbeat CPU  0 instructions:  491000003 cycles:  405356887 heartbeat IPC: 0.89084 cumulative IPC: 1.10205 (Simulation time: 0 hr 17 min 40 sec) 
Heartbeat CPU  0 instructions:  492000000 cycles:  406470550 heartbeat IPC: 0.89794 cumulative IPC: 1.10141 (Simulation time: 0 hr 17 min 43 sec) 
Heartbeat CPU  0 instructions:  493000001 cycles:  407591261 heartbeat IPC: 0.89229 cumulative IPC: 1.10075 (Simulation time: 0 hr 17 min 45 sec) 
Heartbeat CPU  0 instructions:  494000000 cycles:  408718506 heartbeat IPC: 0.88712 cumulative IPC: 1.10008 (Simulation time: 0 hr 17 min 48 sec) 
Heartbeat CPU  0 instructions:  495000000 cycles:  409867844 heartbeat IPC: 0.87007 cumulative IPC: 1.09935 (Simulation time: 0 hr 17 min 50 sec) 
Heartbeat CPU  0 instructions:  496000000 cycles:  411008257 heartbeat IPC: 0.87688 cumulative IPC: 1.09864 (Simulation time: 0 hr 17 min 53 sec) 
Heartbeat CPU  0 instructions:  497000002 cycles:  412158360 heartbeat IPC: 0.86949 cumulative IPC: 1.09791 (Simulation time: 0 hr 17 min 55 sec) 
Heartbeat CPU  0 instructions:  498000001 cycles:  413296641 heartbeat IPC: 0.87852 cumulative IPC: 1.09723 (Simulation time: 0 hr 17 min 58 sec) 
Heartbeat CPU  0 instructions:  499000000 cycles:  414428168 heartbeat IPC: 0.88376 cumulative IPC: 1.09656 (Simulation time: 0 hr 18 min 0 sec) 
Heartbeat CPU  0 instructions:  500000000 cycles:  415546868 heartbeat IPC: 0.89389 cumulative IPC: 1.09594 (Simulation time: 0 hr 18 min 2 sec) 
Heartbeat CPU  0 instructions:  501000003 cycles:  416678983 heartbeat IPC: 0.88331 cumulative IPC: 1.09528 (Simulation time: 0 hr 18 min 5 sec) 
Heartbeat CPU  0 instructions:  502000002 cycles:  417819985 heartbeat IPC: 0.87642 cumulative IPC: 1.09460 (Simulation time: 0 hr 18 min 7 sec) 
Heartbeat CPU  0 instructions:  503000000 cycles:  418960185 heartbeat IPC: 0.87704 cumulative IPC: 1.09393 (Simulation time: 0 hr 18 min 10 sec) 
Heartbeat CPU  0 instructions:  504000000 cycles:  420110946 heartbeat IPC: 0.86899 cumulative IPC: 1.09323 (Simulation time: 0 hr 18 min 12 sec) 
Heartbeat CPU  0 instructions:  505000000 cycles:  421284003 heartbeat IPC: 0.85247 cumulative IPC: 1.09247 (Simulation time: 0 hr 18 min 15 sec) 
Heartbeat CPU  0 instructions:  506000003 cycles:  422426389 heartbeat IPC: 0.87536 cumulative IPC: 1.09180 (Simulation time: 0 hr 18 min 18 sec) 
Heartbeat CPU  0 instructions:  507000002 cycles:  423562283 heartbeat IPC: 0.88036 cumulative IPC: 1.09116 (Simulation time: 0 hr 18 min 20 sec) 
Heartbeat CPU  0 instructions:  508000000 cycles:  424746431 heartbeat IPC: 0.84449 cumulative IPC: 1.09038 (Simulation time: 0 hr 18 min 22 sec) 
Heartbeat CPU  0 instructions:  509000001 cycles:  425894766 heartbeat IPC: 0.87083 cumulative IPC: 1.08970 (Simulation time: 0 hr 18 min 25 sec) 
Heartbeat CPU  0 instructions:  510000000 cycles:  427041171 heartbeat IPC: 0.87229 cumulative IPC: 1.08904 (Simulation time: 0 hr 18 min 27 sec) 
Heartbeat CPU  0 instructions:  511000001 cycles:  428171964 heartbeat IPC: 0.88434 cumulative IPC: 1.08843 (Simulation time: 0 hr 18 min 30 sec) 
Heartbeat CPU  0 instructions:  512000000 cycles:  429286017 heartbeat IPC: 0.89762 cumulative IPC: 1.08787 (Simulation time: 0 hr 18 min 32 sec) 
Heartbeat CPU  0 instructions:  513000000 cycles:  430411864 heartbeat IPC: 0.88822 cumulative IPC: 1.08728 (Simulation time: 0 hr 18 min 35 sec) 
Heartbeat CPU  0 instructions:  514000000 cycles:  431548721 heartbeat IPC: 0.87962 cumulative IPC: 1.08666 (Simulation time: 0 hr 18 min 37 sec) 
Heartbeat CPU  0 instructions:  515000003 cycles:  432695089 heartbeat IPC: 0.87232 cumulative IPC: 1.08601 (Simulation time: 0 hr 18 min 40 sec) 
Heartbeat CPU  0 instructions:  516000000 cycles:  433867717 heartbeat IPC: 0.85278 cumulative IPC: 1.08530 (Simulation time: 0 hr 18 min 42 sec) 
Heartbeat CPU  0 instructions:  517000001 cycles:  435019137 heartbeat IPC: 0.86849 cumulative IPC: 1.08465 (Simulation time: 0 hr 18 min 45 sec) 
Heartbeat CPU  0 instructions:  518000001 cycles:  436174844 heartbeat IPC: 0.86527 cumulative IPC: 1.08399 (Simulation time: 0 hr 18 min 47 sec) 
Heartbeat CPU  0 instructions:  519000000 cycles:  437333878 heartbeat IPC: 0.86279 cumulative IPC: 1.08333 (Simulation time: 0 hr 18 min 50 sec) 
Heartbeat CPU  0 instructions:  520000000 cycles:  438494969 heartbeat IPC: 0.86126 cumulative IPC: 1.08267 (Simulation time: 0 hr 18 min 52 sec) 
Heartbeat CPU  0 instructions:  521000002 cycles:  439635562 heartbeat IPC: 0.87674 cumulative IPC: 1.08206 (Simulation time: 0 hr 18 min 55 sec) 
Heartbeat CPU  0 instructions:  522000002 cycles:  440751228 heartbeat IPC: 0.89633 cumulative IPC: 1.08153 (Simulation time: 0 hr 18 min 57 sec) 
Heartbeat CPU  0 instructions:  523000001 cycles:  441890097 heartbeat IPC: 0.87806 cumulative IPC: 1.08094 (Simulation time: 0 hr 19 min 0 sec) 
Heartbeat CPU  0 instructions:  524000000 cycles:  442907465 heartbeat IPC: 0.98293 cumulative IPC: 1.08068 (Simulation time: 0 hr 19 min 2 sec) 
Heartbeat CPU  0 instructions:  525000000 cycles:  443785714 heartbeat IPC: 1.13863 cumulative IPC: 1.08081 (Simulation time: 0 hr 19 min 4 sec) 
Heartbeat CPU  0 instructions:  526000001 cycles:  444676355 heartbeat IPC: 1.12279 cumulative IPC: 1.08091 (Simulation time: 0 hr 19 min 6 sec) 
Heartbeat CPU  0 instructions:  527000001 cycles:  445564396 heartbeat IPC: 1.12607 cumulative IPC: 1.08101 (Simulation time: 0 hr 19 min 9 sec) 
Heartbeat CPU  0 instructions:  528000000 cycles:  446450775 heartbeat IPC: 1.12818 cumulative IPC: 1.08112 (Simulation time: 0 hr 19 min 11 sec) 
Heartbeat CPU  0 instructions:  529000003 cycles:  447334791 heartbeat IPC: 1.13120 cumulative IPC: 1.08123 (Simulation time: 0 hr 19 min 13 sec) 
[...]
Heartbeat CPU  0 instructions:  548000000 cycles:  463955819 heartbeat IPC: 1.13319 cumulative IPC: 1.08372 (Simulation time: 0 hr 19 min 54 sec) 
Heartbeat CPU  0 instructions:  549000003 cycles:  464842884 heartbeat IPC: 1.12732 cumulative IPC: 1.08381 (Simulation time: 0 hr 19 min 56 sec) 
Heartbeat CPU  0 instructions:  550000000 cycles:  465720835 heartbeat IPC: 1.13901 cumulative IPC: 1.08393 (Simulation time: 0 hr 19 min 58 sec) 
Heartbeat CPU  0 instructions:  551000000 cycles:  466598804 heartbeat IPC: 1.13899 cumulative IPC: 1.08404 (Simulation time: 0 hr 20 min 1 sec) 
Heartbeat CPU  0 instructions:  552000000 cycles:  467474736 heartbeat IPC: 1.14164 cumulative IPC: 1.08416 (Simulation time: 0 hr 20 min 3 sec) 
Heartbeat CPU  0 instructions:  553000000 cycles:  468350697 heartbeat IPC: 1.14160 cumulative IPC: 1.08428 (Simulation time: 0 hr 20 min 5 sec) 
Heartbeat CPU  0 instructions:  554000000 cycles:  469204416 heartbeat IPC: 1.17135 cumulative IPC: 1.08446 (Simulation time: 0 hr 20 min 7 sec) 
Heartbeat CPU  0 instructions:  555000002 cycles:  470073976 heartbeat IPC: 1.15001 cumulative IPC: 1.08460 (Simulation time: 0 hr 20 min 9 sec) 
Heartbeat CPU  0 instructions:  556000000 cycles:  470947465 heartbeat IPC: 1.14483 cumulative IPC: 1.08472 (Simulation time: 0 hr 20 min 11 sec) 
Heartbeat CPU  0 instructions:  557000000 cycles:  471829622 heartbeat IPC: 1.13359 cumulative IPC: 1.08482 (Simulation time: 0 hr 20 min 13 sec) 
Heartbeat CPU  0 instructions:  558000000 cycles:  472712632 heartbeat IPC: 1.13249 cumulative IPC: 1.08492 (Simulation time: 0 hr 20 min 16 sec) 
Heartbeat CPU  0 instructions:  559000000 cycles:  473595802 heartbeat IPC: 1.13228 cumulative IPC: 1.08502 (Simulation time: 0 hr 20 min 18 sec) 
Heartbeat CPU  0 instructions:  560000000 cycles:  474475111 heartbeat IPC: 1.13726 cumulative IPC: 1.08513 (Simulation time: 0 hr 20 min 20 sec) 
Heartbeat CPU  0 instructions:  561000001 cycles:  475348876 heartbeat IPC: 1.14447 cumulative IPC: 1.08525 (Simulation time: 0 hr 20 min 22 sec) 
Heartbeat CPU  0 instructions:  562000003 cycles:  476224147 heartbeat IPC: 1.14251 cumulative IPC: 1.08537 (Simulation time: 0 hr 20 min 24 sec) 
Heartbeat CPU  0 instructions:  563000000 cycles:  477102275 heartbeat IPC: 1.13878 cumulative IPC: 1.08548 (Simulation time: 0 hr 20 min 27 sec) 
Heartbeat CPU  0 instructions:  564000000 cycles:  477967951 heartbeat IPC: 1.15517 cumulative IPC: 1.08562 (Simulation time: 0 hr 20 min 29 sec) 
Heartbeat CPU  0 instructions:  565000003 cycles:  478813296 heartbeat IPC: 1.18295 cumulative IPC: 1.08581 (Simulation time: 0 hr 20 min 31 sec) 
Heartbeat CPU  0 instructions:  566000003 cycles:  479696699 heartbeat IPC: 1.13199 cumulative IPC: 1.08591 (Simulation time: 0 hr 20 min 33 sec) 
Heartbeat CPU  0 instructions:  567000001 cycles:  480575541 heartbeat IPC: 1.13786 cumulative IPC: 1.08602 (Simulation time: 0 hr 20 min 35 sec) 
Heartbeat CPU  0 instructions:  568000000 cycles:  481452511 heartbeat IPC: 1.14029 cumulative IPC: 1.08613 (Simulation time: 0 hr 20 min 37 sec) 
Heartbeat CPU  0 instructions:  569000002 cycles:  482336058 heartbeat IPC: 1.13180 cumulative IPC: 1.08622 (Simulation time: 0 hr 20 min 39 sec) 
Heartbeat CPU  0 instructions:  570000000 cycles:  483214385 heartbeat IPC: 1.13853 cumulative IPC: 1.08633 (Simulation time: 0 hr 20 min 42 sec) 
Heartbeat CPU  0 instructions:  571000002 cycles:  484093992 heartbeat IPC: 1.13687 cumulative IPC: 1.08643 (Simulation time: 0 hr 20 min 44 sec) 
Heartbeat CPU  0 instructions:  572000000 cycles:  484969809 heartbeat IPC: 1.14179 cumulative IPC: 1.08654 (Simulation time: 0 hr 20 min 46 sec) 
Heartbeat CPU  0 instructions:  573000001 cycles:  485842039 heartbeat IPC: 1.14649 cumulative IPC: 1.08666 (Simulation time: 0 hr 20 min 48 sec) 
Heartbeat CPU  0 instructions:  574000003 cycles:  486718181 heartbeat IPC: 1.14137 cumulative IPC: 1.08677 (Simulation time: 0 hr 20 min 50 sec) 
Heartbeat CPU  0 instructions:  575000000 cycles:  487564073 heartbeat IPC: 1.18218 cumulative IPC: 1.08696 (Simulation time: 0 hr 20 min 52 sec) 
Heartbeat CPU  0 instructions:  576000000 cycles:  488432598 heartbeat IPC: 1.15138 cumulative IPC: 1.08708 (Simulation time: 0 hr 20 min 55 sec) 
Heartbeat CPU  0 instructions:  577000000 cycles:  489310252 heartbeat IPC: 1.13940 cumulative IPC: 1.08719 (Simulation time: 0 hr 20 min 57 sec) 
Heartbeat CPU  0 instructions:  578000002 cycles:  490192758 heartbeat IPC: 1.13314 cumulative IPC: 1.08728 (Simulation time: 0 hr 20 min 59 sec) 
Heartbeat CPU  0 instructions:  579000001 cycles:  491075605 heartbeat IPC: 1.13270 cumulative IPC: 1.08737 (Simulation time: 0 hr 21 min 1 sec) 
Heartbeat CPU  0 instructions:  580000000 cycles:  491961560 heartbeat IPC: 1.12872 cumulative IPC: 1.08745 (Simulation time: 0 hr 21 min 3 sec) 
Heartbeat CPU  0 instructions:  581000002 cycles:  492839650 heartbeat IPC: 1.13884 cumulative IPC: 1.08756 (Simulation time: 0 hr 21 min 5 sec) 
Heartbeat CPU  0 instructions:  582000000 cycles:  493713434 heartbeat IPC: 1.14445 cumulative IPC: 1.08767 (Simulation time: 0 hr 21 min 8 sec) 
Heartbeat CPU  0 instructions:  583000003 cycles:  494588381 heartbeat IPC: 1.14293 cumulative IPC: 1.08778 (Simulation time: 0 hr 21 min 10 sec) 
Heartbeat CPU  0 instructions:  584000000 cycles:  495463068 heartbeat IPC: 1.14326 cumulative IPC: 1.08789 (Simulation time: 0 hr 21 min 12 sec) 
Heartbeat CPU  0 instructions:  585000002 cycles:  496323030 heartbeat IPC: 1.16284 cumulative IPC: 1.08803 (Simulation time: 0 hr 21 min 14 sec) 
Heartbeat CPU  0 instructions:  586000003 cycles:  497167927 heartbeat IPC: 1.18358 cumulative IPC: 1.08821 (Simulation time: 0 hr 21 min 16 sec) 
Heartbeat CPU  0 instructions:  587000001 cycles:  498055371 heartbeat IPC: 1.12683 cumulative IPC: 1.08829 (Simulation time: 0 hr 21 min 18 sec) 
Heartbeat CPU  0 instructions:  588000000 cycles:  498933452 heartbeat IPC: 1.13885 cumulative IPC: 1.08839 (Simulation time: 0 hr 21 min 21 sec) 
Heartbeat CPU  0 instructions:  589000002 cycles:  499817928 heartbeat IPC: 1.13062 cumulative IPC: 1.08847 (Simulation time: 0 hr 21 min 23 sec) 
Heartbeat CPU  0 instructions:  590000001 cycles:  500698985 heartbeat IPC: 1.13500 cumulative IPC: 1.08856 (Simulation time: 0 hr 21 min 25 sec) 
Heartbeat CPU  0 instructions:  591000002 cycles:  501584253 heartbeat IPC: 1.12960 cumulative IPC: 1.08864 (Simulation time: 0 hr 21 min 27 sec) 
Heartbeat CPU  0 instructions:  592000000 cycles:  502459828 heartbeat IPC: 1.14210 cumulative IPC: 1.08875 (Simulation time: 0 hr 21 min 29 sec) 
Heartbeat CPU  0 instructions:  593000003 cycles:  503338501 heartbeat IPC: 1.13808 cumulative IPC: 1.08884 (Simulation time: 0 hr 21 min 31 sec) 
Heartbeat CPU  0 instructions:  594000000 cycles:  504217541 heartbeat IPC: 1.13760 cumulative IPC: 1.08894 (Simulation time: 0 hr 21 min 34 sec) 
Heartbeat CPU  0 instructions:  595000003 cycles:  505090533 heartbeat IPC: 1.14549 cumulative IPC: 1.08904 (Simulation time: 0 hr 21 min 36 sec) 
Heartbeat CPU  0 instructions:  596000000 cycles:  505933172 heartbeat IPC: 1.18674 cumulative IPC: 1.08922 (Simulation time: 0 hr 21 min 38 sec) 
Heartbeat CPU  0 instructions:  597000001 cycles:  506802049 heartbeat IPC: 1.15091 cumulative IPC: 1.08934 (Simulation time: 0 hr 21 min 40 sec) 
Heartbeat CPU  0 instructions:  598000002 cycles:  507681144 heartbeat IPC: 1.13753 cumulative IPC: 1.08944 (Simulation time: 0 hr 21 min 42 sec) 
Heartbeat CPU  0 instructions:  599000000 cycles:  508558378 heartbeat IPC: 1.13994 cumulative IPC: 1.08953 (Simulation time: 0 hr 21 min 44 sec) 
Heartbeat CPU  0 instructions:  600000000 cycles:  509441714 heartbeat IPC: 1.13207 cumulative IPC: 1.08961 (Simulation time: 0 hr 21 min 46 sec) 
Finished CPU 0 instructions: 500000001 cycles: 458878248 cumulative IPC: 1.08961 (Simulation time: 0 hr 21 min 46 sec) 

ChampSim completed all CPUs

[ROI Statistics]
Core_0_instructions 500000001
Core_0_cycles 458878248
Core_0_IPC 1.08961

Core_0_branch_prediction_accuracy 99.14585
Core_0_branch_MPKI 0.18961
Core_0_average_ROB_occupancy_at_mispredict 243.91415

Core_0_L1D_total_access 146207457
Core_0_L1D_total_hit 141356440
Core_0_L1D_total_miss 4851017
Core_0_L1D_loads 135552628
Core_0_L1D_load_hit 132092510
Core_0_L1D_load_miss 3460118
Core_0_L1D_RFOs 10654829
Core_0_L1D_RFO_hit 9263930
Core_0_L1D_RFO_miss 1390899
Core_0_L1D_prefetches 0
Core_0_L1D_prefetch_hit 0
Core_0_L1D_prefetch_miss 0
Core_0_L1D_writebacks 0
Core_0_L1D_writeback_hit 0
Core_0_L1D_writeback_miss 0
Core_0_L1D_prefetch_requested 0
Core_0_L1D_prefetch_dropped 0
Core_0_L1D_prefetch_issued 0
Core_0_L1D_prefetch_filled 0
Core_0_L1D_prefetch_useful 0
Core_0_L1D_prefetch_useless 0
Core_0_L1D_prefetch_late 0
Core_0_L1D_average_miss_latency 77.85732

Core_0_L1D_rq_access 196251897
Core_0_L1D_rq_forward 0
Core_0_L1D_rq_merged 59717287
Core_0_L1D_rq_to_cache 136534610
Core_0_L1D_rq_full 0

Core_0_L1D_wq_access 15647860
Core_0_L1D_wq_forward 0
Core_0_L1D_wq_merged 1
Core_0_L1D_wq_to_cache 15647859
Core_0_L1D_wq_full 22216

Core_0_L1D_pq_access 0
Core_0_L1D_pq_forward 0
Core_0_L1D_pq_merged 0
Core_0_L1D_pq_to_cache 0
Core_0_L1D_pq_full 0

Core_0_L1D_acc_epochs 491827
Core_0_L1D_acc_level_0 491827
Core_0_L1D_acc_level_1 0
Core_0_L1D_acc_level_2 0
Core_0_L1D_acc_level_3 0
Core_0_L1D_acc_level_4 0
Core_0_L1D_acc_level_5 0
Core_0_L1D_acc_level_6 0
Core_0_L1D_acc_level_7 0
Core_0_L1D_acc_level_8 0
Core_0_L1D_acc_level_9 0

Core_0_L1I_total_access 116419133
Core_0_L1I_total_hit 116418757
Core_0_L1I_total_miss 376
Core_0_L1I_loads 116419133
Core_0_L1I_load_hit 116418757
Core_0_L1I_load_miss 376
Core_0_L1I_RFOs 0
Core_0_L1I_RFO_hit 0
Core_0_L1I_RFO_miss 0
Core_0_L1I_prefetches 0
Core_0_L1I_prefetch_hit 0
Core_0_L1I_prefetch_miss 0
Core_0_L1I_writebacks 0
Core_0_L1I_writeback_hit 0
Core_0_L1I_writeback_miss 0
Core_0_L1I_prefetch_requested 0
Core_0_L1I_prefetch_dropped 0
Core_0_L1I_prefetch_issued 0
Core_0_L1I_prefetch_filled 0
Core_0_L1I_prefetch_useful 0
Core_0_L1I_prefetch_useless 0
Core_0_L1I_prefetch_late 0
Core_0_L1I_average_miss_latency 146.37766

Core_0_L1I_rq_access 500000000
Core_0_L1I_rq_forward 0
Core_0_L1I_rq_merged 383580169
Core_0_L1I_rq_to_cache 116419831
Core_0_L1I_rq_full 0

Core_0_L1I_wq_access 0
Core_0_L1I_wq_forward 0
Core_0_L1I_wq_merged 0
Core_0_L1I_wq_to_cache 0
Core_0_L1I_wq_full 0

Core_0_L1I_pq_access 0
Core_0_L1I_pq_forward 0
Core_0_L1I_pq_merged 0
Core_0_L1I_pq_to_cache 0
Core_0_L1I_pq_full 0

Core_0_L1I_acc_epochs 491827
Core_0_L1I_acc_level_0 491827
Core_0_L1I_acc_level_1 0
Core_0_L1I_acc_level_2 0
Core_0_L1I_acc_level_3 0
Core_0_L1I_acc_level_4 0
Core_0_L1I_acc_level_5 0
Core_0_L1I_acc_level_6 0
Core_0_L1I_acc_level_7 0
Core_0_L1I_acc_level_8 0
Core_0_L1I_acc_level_9 0

Core_0_L2C_total_access 9975186
Core_0_L2C_total_hit 6321543
Core_0_L2C_total_miss 3653643
Core_0_L2C_loads 3460461
Core_0_L2C_load_hit 2653791
Core_0_L2C_load_miss 806670
Core_0_L2C_RFOs 1390876
Core_0_L2C_RFO_hit 362430
Core_0_L2C_RFO_miss 1028446
Core_0_L2C_prefetches 3465136
Core_0_L2C_prefetch_hit 1646708
Core_0_L2C_prefetch_miss 1818428
Core_0_L2C_writebacks 1658713
Core_0_L2C_writeback_hit 1658614
Core_0_L2C_writeback_miss 99
Core_0_L2C_prefetch_requested 22032700
Core_0_L2C_prefetch_dropped 19954
Core_0_L2C_prefetch_issued 22012746
Core_0_L2C_prefetch_filled 2349441
Core_0_L2C_prefetch_useful 2338197
Core_0_L2C_prefetch_useless 11229
Core_0_L2C_prefetch_late 4397
Core_0_L2C_average_miss_latency 101.84634

Core_0_L2C_rq_access 4851393
Core_0_L2C_rq_forward 0
Core_0_L2C_rq_merged 0
Core_0_L2C_rq_to_cache 4851337
Core_0_L2C_rq_full 0

Core_0_L2C_wq_access 1658713
Core_0_L2C_wq_forward 154
Core_0_L2C_wq_merged 0
Core_0_L2C_wq_to_cache 1658713
Core_0_L2C_wq_full 0

Core_0_L2C_pq_access 22012746
Core_0_L2C_pq_forward 0
Core_0_L2C_pq_merged 137501
Core_0_L2C_pq_to_cache 21875147
Core_0_L2C_pq_full 0

Core_0_L2C_acc_epochs 491827
Core_0_L2C_acc_level_0 39795
Core_0_L2C_acc_level_1 8716
Core_0_L2C_acc_level_2 8803
Core_0_L2C_acc_level_3 5286
Core_0_L2C_acc_level_4 13811
Core_0_L2C_acc_level_5 15853
Core_0_L2C_acc_level_6 10374
Core_0_L2C_acc_level_7 21569
Core_0_L2C_acc_level_8 47439
Core_0_L2C_acc_level_9 320181

Core_0_LLC_total_access 18319949
Core_0_LLC_total_hit 13961408
Core_0_LLC_total_miss 4358541
Core_0_LLC_loads 802320
Core_0_LLC_load_hit 722803
Core_0_LLC_load_miss 79517
Core_0_LLC_RFOs 1028446
Core_0_LLC_RFO_hit 42874
Core_0_LLC_RFO_miss 985572
Core_0_LLC_prefetches 15380440
Core_0_LLC_prefetch_hit 12832241
Core_0_LLC_prefetch_miss 2548199
Core_0_LLC_writebacks 1108743
Core_0_LLC_writeback_hit 363490
Core_0_LLC_writeback_miss 745253
Core_0_LLC_prefetch_requested 0
Core_0_LLC_prefetch_dropped 0
Core_0_LLC_prefetch_issued 0
Core_0_LLC_prefetch_filled 3211836
Core_0_LLC_prefetch_useful 970147
Core_0_LLC_prefetch_useless 2222583
Core_0_LLC_prefetch_late 2114
Core_0_LLC_average_miss_latency 194.41155

Core_0_LLC_rq_access 1830766
Core_0_LLC_rq_forward 0
Core_0_LLC_rq_merged 0
Core_0_LLC_rq_to_cache 1830766
Core_0_LLC_rq_full 0

Core_0_LLC_wq_access 1108743
Core_0_LLC_wq_forward 1
Core_0_LLC_wq_merged 0
Core_0_LLC_wq_to_cache 1108743
Core_0_LLC_wq_full 0

Core_0_LLC_pq_access 19729628
Core_0_LLC_pq_forward 0
Core_0_LLC_pq_merged 5542
Core_0_LLC_pq_to_cache 19724085
Core_0_LLC_pq_full 0

Core_0_LLC_acc_epochs 497502
Core_0_LLC_acc_level_0 84128
Core_0_LLC_acc_level_1 69886
Core_0_LLC_acc_level_2 151565
Core_0_LLC_acc_level_3 76766
Core_0_LLC_acc_level_4 30169
Core_0_LLC_acc_level_5 31495
Core_0_LLC_acc_level_6 16290
Core_0_LLC_acc_level_7 8181
Core_0_LLC_acc_level_8 5984
Core_0_LLC_acc_level_9 23038

Core_0_major_page_fault 0
Core_0_minor_page_fault 19121

spp.pref.total 22032700
spp.pref.at_L2 2589179
spp.pref.at_LLC 19443521

spp.depth.max 11
spp.depth.min 0
spp.depth.avg 5

spp.breadth.max 2
spp.breadth.min 0
spp.breadth.avg 0

delta_1 21097319
delta_16 857648
delta_-15 670726
delta_32 160514
delta_-47 153062
delta_31 71872
delta_-31 37387
delta_-30 31751
delta_15 22942
delta_-1 7106
delta_3 4661
delta_-8 3464
delta_46 2627
delta_2 2137
delta_-16 1938
delta_-2 1688
delta_-45 1659
delta_-44 1538
delta_-4 1498
delta_-10 1381
delta_4 1304
delta_19 1259
delta_63 1041
delta_47 949
delta_-38 892
delta_-9 731
delta_-3 721
delta_-32 583
delta_-23 554
delta_25 536
delta_34 523
delta_22 523
delta_-43 485
delta_38 409
delta_-18 409
delta_29 387
delta_-61 359
delta_41 341
delta_-34 323
delta_57 317
delta_-60 311
delta_-46 297
delta_-29 254
delta_13 240
delta_62 236
delta_-40 234
delta_-5 225
delta_-41 206
delta_-12 201
delta_-11 188
delta_48 188
delta_30 180
delta_-48 176
delta_9 160
delta_12 153
delta_-14 152
delta_50 140
delta_-6 126
delta_6 107
delta_7 91
delta_18 72
delta_61 69
delta_10 65
delta_14 55
delta_-19 53
delta_-55 45
delta_-7 44
delta_-13 40
delta_23 40
delta_35 35
delta_17 35
delta_11 35
delta_21 31
delta_-21 30
delta_-22 30
delta_-35 24
delta_-37 21
delta_-24 19
delta_28 13
delta_42 8
delta_39 4
delta_-51 1

depth_1_delta_1 3760785
depth_1_delta_16 255590
depth_1_delta_-15 202356
depth_1_delta_32 51776
depth_1_delta_-47 46509
depth_1_delta_31 41759
depth_1_delta_-30 19098
depth_1_delta_-31 18313
depth_1_delta_15 8998
depth_1_delta_-1 5725
depth_1_delta_3 3196
depth_1_delta_-8 2178
depth_1_delta_46 1921
depth_1_delta_-16 1823
depth_1_delta_-45 1541
depth_1_delta_2 1446
depth_1_delta_-2 1412
depth_1_delta_4 1266
depth_1_delta_19 1200
depth_1_delta_-10 1036
depth_1_delta_63 1007
depth_1_delta_-44 999
depth_1_delta_47 920
depth_1_delta_-4 917
depth_1_delta_-9 676
depth_1_delta_-3 621
depth_1_delta_-38 579
depth_1_delta_25 531
depth_1_delta_34 518
depth_1_delta_22 424
depth_1_delta_-32 412
depth_1_delta_29 376
depth_1_delta_-43 348
depth_1_delta_-18 345
depth_1_delta_-23 332
depth_1_delta_41 315
depth_1_delta_-34 313
depth_1_delta_-60 311
depth_1_delta_-46 297
depth_1_delta_57 275
depth_1_delta_38 260
depth_1_delta_-29 254
depth_1_delta_-61 237
depth_1_delta_-40 223
depth_1_delta_-5 218
depth_1_delta_62 208
depth_1_delta_13 195
depth_1_delta_-11 188
depth_1_delta_48 188
depth_1_delta_-48 176
depth_1_delta_-41 161
depth_1_delta_9 160
depth_1_delta_-14 151
depth_1_delta_50 132
depth_1_delta_-6 126
depth_1_delta_-12 119
depth_1_delta_6 107
depth_1_delta_30 105
depth_1_delta_7 91
depth_1_delta_61 69
depth_1_delta_12 62
depth_1_delta_10 54
depth_1_delta_-19 53
depth_1_delta_-7 44
depth_1_delta_-13 40
depth_1_delta_23 40
depth_1_delta_14 39
depth_1_delta_-55 35
depth_1_delta_17 35
depth_1_delta_-21 30
depth_1_delta_-22 30
depth_1_delta_11 29
depth_1_delta_35 29
depth_1_delta_18 21
depth_1_delta_-37 19
depth_1_delta_-24 19
depth_1_delta_-35 18
depth_1_delta_21 18
depth_1_delta_28 13
depth_1_delta_42 8
depth_1_delta_39 4
depth_1_delta_-51 1
depth_2_delta_1 3586767
depth_2_delta_16 219269
depth_2_delta_-15 167569
depth_2_delta_32 38998
depth_2_delta_-47 37216
depth_2_delta_31 17508
depth_2_delta_-31 9799
depth_2_delta_-30 9790
depth_2_delta_15 9197
depth_2_delta_3 1249
depth_2_delta_-8 1019
depth_2_delta_-1 867
depth_2_delta_46 706
depth_2_delta_2 560
depth_2_delta_-44 489
depth_2_delta_-4 402
depth_2_delta_-10 345
depth_2_delta_-38 313
depth_2_delta_-2 230
depth_2_delta_-23 222
depth_2_delta_-32 171
depth_2_delta_-43 137
depth_2_delta_-45 118
depth_2_delta_-61 117
depth_2_delta_-16 115
depth_2_delta_38 104
depth_2_delta_-3 100
depth_2_delta_22 99
depth_2_delta_12 91
depth_2_delta_-12 82
depth_2_delta_30 75
depth_2_delta_-18 64
depth_2_delta_19 58
depth_2_delta_-9 54
depth_2_delta_18 51
depth_2_delta_13 45
depth_2_delta_4 38
depth_2_delta_57 37
depth_2_delta_-41 37
depth_2_delta_47 29
depth_2_delta_62 28
depth_2_delta_63 28
depth_2_delta_41 26
depth_2_delta_14 13
depth_2_delta_21 13
depth_2_delta_29 11
depth_2_delta_10 11
depth_2_delta_-34 10
depth_2_delta_-55 9
depth_2_delta_-40 9
depth_2_delta_50 8
depth_2_delta_-5 7
depth_2_delta_11 6
depth_2_delta_-35 6
depth_2_delta_35 6
depth_2_delta_25 5
depth_2_delta_34 5
depth_2_delta_-37 2
depth_2_delta_-14 1
depth_3_delta_1 3391518
depth_3_delta_16 168838
depth_3_delta_-15 128235
depth_3_delta_32 29430
depth_3_delta_-47 29385
depth_3_delta_31 9049
depth_3_delta_-31 6688
depth_3_delta_15 3645
depth_3_delta_-30 1882
depth_3_delta_-1 487
depth_3_delta_-8 242
depth_3_delta_3 213
depth_3_delta_-4 175
depth_3_delta_2 71
depth_3_delta_-44 50
depth_3_delta_38 45
depth_3_delta_-2 42
depth_3_delta_63 6
depth_3_delta_57 5
depth_3_delta_-41 5
depth_3_delta_-61 5
depth_3_delta_14 3
depth_3_delta_-40 2
depth_3_delta_-9 1
depth_3_delta_-55 1
depth_3_delta_19 1
depth_4_delta_1 3198710
depth_4_delta_16 121994
depth_4_delta_-15 93970
depth_4_delta_32 23185
depth_4_delta_-47 23179
depth_4_delta_31 2854
depth_4_delta_-31 1800
depth_4_delta_15 1097
depth_4_delta_-30 884
depth_4_delta_2 60
depth_4_delta_-1 27
depth_4_delta_-8 25
depth_4_delta_-4 4
depth_4_delta_-2 4
depth_4_delta_-41 3
depth_4_delta_3 3
depth_5_delta_1 2780342
depth_5_delta_16 66966
depth_5_delta_-15 56493
depth_5_delta_32 13655
depth_5_delta_-47 13162
depth_5_delta_31 667
depth_5_delta_-31 647
depth_5_delta_-30 96
depth_5_delta_15 5
depth_6_delta_1 2007843
depth_6_delta_16 21968
depth_6_delta_-15 18997
depth_6_delta_-47 3484
depth_6_delta_32 3320
depth_6_delta_-31 135
depth_6_delta_31 35
depth_6_delta_-30 1
depth_7_delta_1 1203011
depth_7_delta_16 2428
depth_7_delta_-15 2404
depth_7_delta_32 150
depth_7_delta_-47 126
depth_7_delta_-31 5
depth_8_delta_1 700373
depth_8_delta_-15 475
depth_8_delta_16 459
depth_8_delta_-47 1
depth_9_delta_1 373893
depth_9_delta_-15 218
depth_9_delta_16 93
depth_10_delta_1 93800
depth_10_delta_16 43
depth_10_delta_-15 9
depth_11_delta_1 277

Channel_0_RQ_row_buffer_hit 714550
Channel_0_RQ_row_buffer_miss 2898720
Channel_0_WQ_row_buffer_hit 319250
Channel_0_WQ_row_buffer_miss 781335
Channel_0_WQ_full 0
Channel_0_dbus_congested 1248263

avg_congested_cycle 4

DRAM_bw_pochs 1990007
DRAM_bw_level_0 1926793
DRAM_bw_level_1 59307
DRAM_bw_level_2 3343
DRAM_bw_level_3 564
