*************************************************
   ChampSim Multicore Out-of-Order Simulator
   Last compiled: Dec 11 2024 17:59:53
*************************************************
parsing config file: /home/functionmain/桌面/Pythia/config/bingo.ini

trace_0 /home/functionmain/桌面/Pythia/traces/437.leslie3d-232B.champsimtrace.xz
adding L2C_PREFETCHER: Bingo
Initialize SHIP state
warmup_instructions 100000000
simulation_instructions 500000000
champsim_seed 217
measure_ipc 0
measure_ipc_epoch 1000
measure_dram_bw 1
measure_dram_bw_epoch 256
measure_cache_acc 1
measure_cache_acc_epoch 1024
l1d_perfect 0
l2c_perfect 0
llc_perfect 0
l1d_semi_perfect 0
l2c_semi_perfect 0
llc_semi_perfect 0
semi_perfect_cache_page_buffer_size 64

num_cpus 1
cpu_freq 4000
dram_io_freq 2400
page_size 4096
block_size 64
max_read_per_cycle 8
max_fill_per_cycle 1
dram_channels 1
log2_dram_channels 0
dram_ranks 1
dram_banks 8
dram_rows 65536
dram_columns 128
dram_row_size 8
dram_size 4096
dram_pages 1048576

fetch_width 6
decode_width 6
exec_width 4
lq_width 2
sq_width 2
retire_width 4
scheduler_size 128
branch_mispredict_penalty 20
rob_size 256
lq_size 72
sq_size 56
num_instr_destinations_sparc 4
num_instr_destinations 2
num_instr_sources 4

itlb_set 16
itlb_way 8
itlb_rq_size 16
itlb_wq_size 16
itlb_pq_size 0
itlb_mshr_size 8
itlb_latency 1

dtlb_set 16
dtlb_way 4
dtlb_rq_size 16
dtlb_wq_size 16
dtlb_pq_size 0
dtlb_mshr_size 8
dtlb_latency 1

stlb_set 128
stlb_way 12
stlb_rq_size 32
stlb_wq_size 32
stlb_pq_size 0
stlb_mshr_size 16
stlb_latency 8

l1i_size 32
l1i_set 64
l1i_way 8
l1i_rq_size 64
l1i_wq_size 64
l1i_pq_size 8
l1i_mshr_size 8
l1i_latency 1

l1d_size 32
l1d_set 64
l1d_way 8
l1d_rq_size 64
l1d_wq_size 64
l1d_pq_size 8
l1d_mshr_size 16
l1d_latency 4

l2c_size 256
l2c_set 512
l2c_way 8
l2c_rq_size 32
l2c_wq_size 32
l2c_pq_size 32
l2c_mshr_size 32
l2c_latency 10

llc_size 2048
llc_set 2048
llc_way 16
llc_rq_size 32
llc_wq_size 32
llc_pq_size 32
llc_mshr_size 64
llc_latency 20

dram_channel_width 8
dram_wq_size 64
dram_rq_size 64
tRP 15
tRCD 15
tCAS 12.5
dram_dbus_turn_around_time 30
dram_write_high_wm 56
dram_write_low_wm 48
min_dram_writes_per_switch 16
dram_mtps 2400
dram_dbus_return_time 13

bingo_region_size 2048
bingo_pattern_len 32
bingo_pc_width 16
bingo_min_addr_width 5
bingo_max_addr_width 16
bingo_ft_size 64
bingo_at_size 128
bingo_pht_size 4096
bingo_pht_ways 16
bingo_pf_streamer_size 128
bingo_debug_level 0
bingo_l1d_thresh 1.01
bingo_l2c_thresh 0.8
bingo_llc_thresh 0.05
bingo_pc_address_fill_level L2


Heartbeat CPU  0 instructions:    1000000 cycles:     488191 heartbeat IPC: 2.04838 cumulative IPC: 2.04838 (Simulation time: 0 hr 0 min 2 sec) 
Heartbeat CPU  0 instructions:    2000001 cycles:     995363 heartbeat IPC: 1.97172 cumulative IPC: 2.00932 (Simulation time: 0 hr 0 min 4 sec) 
Heartbeat CPU  0 instructions:    3000003 cycles:    1554436 heartbeat IPC: 1.78868 cumulative IPC: 1.92996 (Simulation time: 0 hr 0 min 6 sec) 
Heartbeat CPU  0 instructions:    4000000 cycles:    2079224 heartbeat IPC: 1.90553 cumulative IPC: 1.92379 (Simulation time: 0 hr 0 min 7 sec) 
Heartbeat CPU  0 instructions:    5000002 cycles:    2567398 heartbeat IPC: 2.04845 cumulative IPC: 1.94750 (Simulation time: 0 hr 0 min 9 sec) 
Heartbeat CPU  0 instructions:    6000003 cycles:    3054998 heartbeat IPC: 2.05086 cumulative IPC: 1.96400 (Simulation time: 0 hr 0 min 11 sec) 
Heartbeat CPU  0 instructions:    7000001 cycles:    3542987 heartbeat IPC: 2.04922 cumulative IPC: 1.97573 (Simulation time: 0 hr 0 min 13 sec) 
Heartbeat CPU  0 instructions:    8000000 cycles:    4031145 heartbeat IPC: 2.04852 cumulative IPC: 1.98455 (Simulation time: 0 hr 0 min 14 sec) 
Heartbeat CPU  0 instructions:    9000000 cycles:    4519734 heartbeat IPC: 2.04671 cumulative IPC: 1.99127 (Simulation time: 0 hr 0 min 16 sec) 
Heartbeat CPU  0 instructions:   10000003 cycles:    5008426 heartbeat IPC: 2.04628 cumulative IPC: 1.99664 (Simulation time: 0 hr 0 min 18 sec) 
Heartbeat CPU  0 instructions:   11000000 cycles:    5497200 heartbeat IPC: 2.04593 cumulative IPC: 2.00102 (Simulation time: 0 hr 0 min 20 sec) 
Heartbeat CPU  0 instructions:   12000000 cycles:    5985647 heartbeat IPC: 2.04731 cumulative IPC: 2.00480 (Simulation time: 0 hr 0 min 21 sec) 
Heartbeat CPU  0 instructions:   13000001 cycles:    6532540 heartbeat IPC: 1.82851 cumulative IPC: 1.99004 (Simulation time: 0 hr 0 min 23 sec) 
Heartbeat CPU  0 instructions:   14000001 cycles:    7088294 heartbeat IPC: 1.79936 cumulative IPC: 1.97509 (Simulation time: 0 hr 0 min 25 sec) 
Heartbeat CPU  0 instructions:   15000000 cycles:    7576438 heartbeat IPC: 2.04857 cumulative IPC: 1.97982 (Simulation time: 0 hr 0 min 27 sec) 
Heartbeat CPU  0 instructions:   16000000 cycles:    8064722 heartbeat IPC: 2.04799 cumulative IPC: 1.98395 (Simulation time: 0 hr 0 min 28 sec) 
Heartbeat CPU  0 instructions:   17000003 cycles:    8552959 heartbeat IPC: 2.04819 cumulative IPC: 1.98762 (Simulation time: 0 hr 0 min 30 sec) 
Heartbeat CPU  0 instructions:   18000003 cycles:    9041223 heartbeat IPC: 2.04807 cumulative IPC: 1.99088 (Simulation time: 0 hr 0 min 32 sec) 
Heartbeat CPU  0 instructions:   19000001 cycles:    9529632 heartbeat IPC: 2.04746 cumulative IPC: 1.99378 (Simulation time: 0 hr 0 min 33 sec) 
Heartbeat CPU  0 instructions:   20000000 cycles:   10018499 heartbeat IPC: 2.04554 cumulative IPC: 1.99631 (Simulation time: 0 hr 0 min 35 sec) 
Heartbeat CPU  0 instructions:   21000000 cycles:   10507427 heartbeat IPC: 2.04529 cumulative IPC: 1.99859 (Simulation time: 0 hr 0 min 37 sec) 
Heartbeat CPU  0 instructions:   22000002 cycles:   10995720 heartbeat IPC: 2.04795 cumulative IPC: 2.00078 (Simulation time: 0 hr 0 min 39 sec) 
Heartbeat CPU  0 instructions:   23000002 cycles:   11510986 heartbeat IPC: 1.94075 cumulative IPC: 1.99809 (Simulation time: 0 hr 0 min 40 sec) 
Heartbeat CPU  0 instructions:   24000000 cycles:   12070214 heartbeat IPC: 1.78818 cumulative IPC: 1.98837 (Simulation time: 0 hr 0 min 42 sec) 
Heartbeat CPU  0 instructions:   25000001 cycles:   12585927 heartbeat IPC: 1.93906 cumulative IPC: 1.98635 (Simulation time: 0 hr 0 min 44 sec) 
Heartbeat CPU  0 instructions:   26000001 cycles:   13074549 heartbeat IPC: 2.04657 cumulative IPC: 1.98860 (Simulation time: 0 hr 0 min 46 sec) 
Heartbeat CPU  0 instructions:   27000000 cycles:   13563057 heartbeat IPC: 2.04705 cumulative IPC: 1.99070 (Simulation time: 0 hr 0 min 47 sec) 
Heartbeat CPU  0 instructions:   28000000 cycles:   14051921 heartbeat IPC: 2.04556 cumulative IPC: 1.99261 (Simulation time: 0 hr 0 min 49 sec) 
Heartbeat CPU  0 instructions:   29000002 cycles:   14540510 heartbeat IPC: 2.04671 cumulative IPC: 1.99443 (Simulation time: 0 hr 0 min 51 sec) 
Heartbeat CPU  0 instructions:   30000001 cycles:   15029278 heartbeat IPC: 2.04596 cumulative IPC: 1.99610 (Simulation time: 0 hr 0 min 53 sec) 
Heartbeat CPU  0 instructions:   31000001 cycles:   15517291 heartbeat IPC: 2.04913 cumulative IPC: 1.99777 (Simulation time: 0 hr 0 min 54 sec) 
Heartbeat CPU  0 instructions:   32000000 cycles:   16005362 heartbeat IPC: 2.04888 cumulative IPC: 1.99933 (Simulation time: 0 hr 0 min 56 sec) 
Heartbeat CPU  0 instructions:   33000002 cycles:   16493652 heartbeat IPC: 2.04797 cumulative IPC: 2.00077 (Simulation time: 0 hr 0 min 58 sec) 
Heartbeat CPU  0 instructions:   34000001 cycles:   17048906 heartbeat IPC: 1.80098 cumulative IPC: 1.99426 (Simulation time: 0 hr 1 min 0 sec) 
Heartbeat CPU  0 instructions:   35000001 cycles:   17595817 heartbeat IPC: 1.82845 cumulative IPC: 1.98911 (Simulation time: 0 hr 1 min 1 sec) 
Heartbeat CPU  0 instructions:   36000000 cycles:   18084212 heartbeat IPC: 2.04752 cumulative IPC: 1.99069 (Simulation time: 0 hr 1 min 3 sec) 
Heartbeat CPU  0 instructions:   37000003 cycles:   18573306 heartbeat IPC: 2.04460 cumulative IPC: 1.99211 (Simulation time: 0 hr 1 min 5 sec) 
Heartbeat CPU  0 instructions:   38000001 cycles:   19061971 heartbeat IPC: 2.04639 cumulative IPC: 1.99350 (Simulation time: 0 hr 1 min 6 sec) 
Heartbeat CPU  0 instructions:   39000002 cycles:   19550538 heartbeat IPC: 2.04680 cumulative IPC: 1.99483 (Simulation time: 0 hr 1 min 8 sec) 
Heartbeat CPU  0 instructions:   40000000 cycles:   20038404 heartbeat IPC: 2.04974 cumulative IPC: 1.99617 (Simulation time: 0 hr 1 min 10 sec) 
Heartbeat CPU  0 instructions:   41000001 cycles:   20526222 heartbeat IPC: 2.04995 cumulative IPC: 1.99745 (Simulation time: 0 hr 1 min 12 sec) 
Heartbeat CPU  0 instructions:   42000001 cycles:   21014270 heartbeat IPC: 2.04898 cumulative IPC: 1.99864 (Simulation time: 0 hr 1 min 13 sec) 
Heartbeat CPU  0 instructions:   43000001 cycles:   21502788 heartbeat IPC: 2.04701 cumulative IPC: 1.99974 (Simulation time: 0 hr 1 min 15 sec) 
Heartbeat CPU  0 instructions:   44000000 cycles:   22026960 heartbeat IPC: 1.90777 cumulative IPC: 1.99755 (Simulation time: 0 hr 1 min 17 sec) 
Heartbeat CPU  0 instructions:   45000000 cycles:   22586606 heartbeat IPC: 1.78684 cumulative IPC: 1.99233 (Simulation time: 0 hr 1 min 19 sec) 
Heartbeat CPU  0 instructions:   46000002 cycles:   23094962 heartbeat IPC: 1.96713 cumulative IPC: 1.99178 (Simulation time: 0 hr 1 min 20 sec) 
Heartbeat CPU  0 instructions:   47000002 cycles:   23583622 heartbeat IPC: 2.04641 cumulative IPC: 1.99291 (Simulation time: 0 hr 1 min 22 sec) 
Heartbeat CPU  0 instructions:   48000000 cycles:   24071784 heartbeat IPC: 2.04850 cumulative IPC: 1.99404 (Simulation time: 0 hr 1 min 24 sec) 
Heartbeat CPU  0 instructions:   49000002 cycles:   24559876 heartbeat IPC: 2.04880 cumulative IPC: 1.99512 (Simulation time: 0 hr 1 min 26 sec) 
Heartbeat CPU  0 instructions:   50000000 cycles:   25048284 heartbeat IPC: 2.04746 cumulative IPC: 1.99614 (Simulation time: 0 hr 1 min 27 sec) 
Heartbeat CPU  0 instructions:   51000002 cycles:   25536458 heartbeat IPC: 2.04845 cumulative IPC: 1.99714 (Simulation time: 0 hr 1 min 29 sec) 
Heartbeat CPU  0 instructions:   52000000 cycles:   26024887 heartbeat IPC: 2.04738 cumulative IPC: 1.99809 (Simulation time: 0 hr 1 min 31 sec) 
Heartbeat CPU  0 instructions:   53000000 cycles:   26513220 heartbeat IPC: 2.04778 cumulative IPC: 1.99900 (Simulation time: 0 hr 1 min 32 sec) 
Heartbeat CPU  0 instructions:   54000000 cycles:   27005817 heartbeat IPC: 2.03006 cumulative IPC: 1.99957 (Simulation time: 0 hr 1 min 34 sec) 
Heartbeat CPU  0 instructions:   55000002 cycles:   27564992 heartbeat IPC: 1.78835 cumulative IPC: 1.99528 (Simulation time: 0 hr 1 min 36 sec) 
Heartbeat CPU  0 instructions:   56000000 cycles:   28105366 heartbeat IPC: 1.85057 cumulative IPC: 1.99250 (Simulation time: 0 hr 1 min 38 sec) 
Heartbeat CPU  0 instructions:   57000000 cycles:   28593334 heartbeat IPC: 2.04931 cumulative IPC: 1.99347 (Simulation time: 0 hr 1 min 39 sec) 
Heartbeat CPU  0 instructions:   58000003 cycles:   29081217 heartbeat IPC: 2.04968 cumulative IPC: 1.99441 (Simulation time: 0 hr 1 min 41 sec) 
Heartbeat CPU  0 instructions:   59000001 cycles:   29569254 heartbeat IPC: 2.04902 cumulative IPC: 1.99532 (Simulation time: 0 hr 1 min 43 sec) 
Heartbeat CPU  0 instructions:   60000000 cycles:   30057601 heartbeat IPC: 2.04772 cumulative IPC: 1.99617 (Simulation time: 0 hr 1 min 45 sec) 
Heartbeat CPU  0 instructions:   61000000 cycles:   30546120 heartbeat IPC: 2.04700 cumulative IPC: 1.99698 (Simulation time: 0 hr 1 min 46 sec) 
Heartbeat CPU  0 instructions:   62000000 cycles:   31034990 heartbeat IPC: 2.04553 cumulative IPC: 1.99775 (Simulation time: 0 hr 1 min 48 sec) 
Heartbeat CPU  0 instructions:   63000002 cycles:   31523548 heartbeat IPC: 2.04684 cumulative IPC: 1.99851 (Simulation time: 0 hr 1 min 50 sec) 
Heartbeat CPU  0 instructions:   64000000 cycles:   32012050 heartbeat IPC: 2.04707 cumulative IPC: 1.99925 (Simulation time: 0 hr 1 min 52 sec) 
Heartbeat CPU  0 instructions:   65000000 cycles:   32543128 heartbeat IPC: 1.88296 cumulative IPC: 1.99735 (Simulation time: 0 hr 1 min 53 sec) 
Heartbeat CPU  0 instructions:   66000001 cycles:   33102382 heartbeat IPC: 1.78810 cumulative IPC: 1.99381 (Simulation time: 0 hr 1 min 55 sec) 
Heartbeat CPU  0 instructions:   67000000 cycles:   33602550 heartbeat IPC: 1.99933 cumulative IPC: 1.99390 (Simulation time: 0 hr 1 min 57 sec) 
Heartbeat CPU  0 instructions:   68000000 cycles:   34090801 heartbeat IPC: 2.04813 cumulative IPC: 1.99467 (Simulation time: 0 hr 1 min 59 sec) 
Heartbeat CPU  0 instructions:   69000001 cycles:   34579255 heartbeat IPC: 2.04728 cumulative IPC: 1.99542 (Simulation time: 0 hr 2 min 0 sec) 
Heartbeat CPU  0 instructions:   70000001 cycles:   35067390 heartbeat IPC: 2.04861 cumulative IPC: 1.99616 (Simulation time: 0 hr 2 min 2 sec) 
Heartbeat CPU  0 instructions:   71000003 cycles:   35556193 heartbeat IPC: 2.04582 cumulative IPC: 1.99684 (Simulation time: 0 hr 2 min 4 sec) 
Heartbeat CPU  0 instructions:   72000000 cycles:   36045057 heartbeat IPC: 2.04555 cumulative IPC: 1.99750 (Simulation time: 0 hr 2 min 5 sec) 
Heartbeat CPU  0 instructions:   73000001 cycles:   36533969 heartbeat IPC: 2.04536 cumulative IPC: 1.99814 (Simulation time: 0 hr 2 min 7 sec) 
Heartbeat CPU  0 instructions:   74000000 cycles:   37021994 heartbeat IPC: 2.04907 cumulative IPC: 1.99881 (Simulation time: 0 hr 2 min 9 sec) 
Heartbeat CPU  0 instructions:   75000001 cycles:   37521630 heartbeat IPC: 2.00146 cumulative IPC: 1.99885 (Simulation time: 0 hr 2 min 11 sec) 
Heartbeat CPU  0 instructions:   76000000 cycles:   38080850 heartbeat IPC: 1.78820 cumulative IPC: 1.99575 (Simulation time: 0 hr 2 min 12 sec) 
Heartbeat CPU  0 instructions:   77000002 cycles:   38611824 heartbeat IPC: 1.88334 cumulative IPC: 1.99421 (Simulation time: 0 hr 2 min 14 sec) 
Heartbeat CPU  0 instructions:   78000001 cycles:   39100177 heartbeat IPC: 2.04770 cumulative IPC: 1.99488 (Simulation time: 0 hr 2 min 16 sec) 
Heartbeat CPU  0 instructions:   79000001 cycles:   39588990 heartbeat IPC: 2.04577 cumulative IPC: 1.99550 (Simulation time: 0 hr 2 min 18 sec) 
Heartbeat CPU  0 instructions:   80000000 cycles:   40077545 heartbeat IPC: 2.04685 cumulative IPC: 1.99613 (Simulation time: 0 hr 2 min 20 sec) 
Heartbeat CPU  0 instructions:   81000003 cycles:   40566276 heartbeat IPC: 2.04612 cumulative IPC: 1.99673 (Simulation time: 0 hr 2 min 21 sec) 
Heartbeat CPU  0 instructions:   82000001 cycles:   41054471 heartbeat IPC: 2.04836 cumulative IPC: 1.99735 (Simulation time: 0 hr 2 min 23 sec) 
Heartbeat CPU  0 instructions:   83000000 cycles:   41542487 heartbeat IPC: 2.04911 cumulative IPC: 1.99795 (Simulation time: 0 hr 2 min 25 sec) 
Heartbeat CPU  0 instructions:   84000000 cycles:   42030605 heartbeat IPC: 2.04868 cumulative IPC: 1.99854 (Simulation time: 0 hr 2 min 27 sec) 
Heartbeat CPU  0 instructions:   85000002 cycles:   42518890 heartbeat IPC: 2.04799 cumulative IPC: 1.99911 (Simulation time: 0 hr 2 min 28 sec) 
Heartbeat CPU  0 instructions:   86000000 cycles:   43059393 heartbeat IPC: 1.85012 cumulative IPC: 1.99724 (Simulation time: 0 hr 2 min 30 sec) 
Heartbeat CPU  0 instructions:   87000002 cycles:   43618838 heartbeat IPC: 1.78749 cumulative IPC: 1.99455 (Simulation time: 0 hr 2 min 32 sec) 
Heartbeat CPU  0 instructions:   88000000 cycles:   44132098 heartbeat IPC: 1.94833 cumulative IPC: 1.99401 (Simulation time: 0 hr 2 min 33 sec) 
Heartbeat CPU  0 instructions:   89000002 cycles:   44659681 heartbeat IPC: 1.89544 cumulative IPC: 1.99285 (Simulation time: 0 hr 2 min 35 sec) 
Heartbeat CPU  0 instructions:   90000002 cycles:   45186653 heartbeat IPC: 1.89763 cumulative IPC: 1.99174 (Simulation time: 0 hr 2 min 37 sec) 
Heartbeat CPU  0 instructions:   91000003 cycles:   45714007 heartbeat IPC: 1.89626 cumulative IPC: 1.99064 (Simulation time: 0 hr 2 min 39 sec) 
Heartbeat CPU  0 instructions:   92000000 cycles:   46240819 heartbeat IPC: 1.89820 cumulative IPC: 1.98958 (Simulation time: 0 hr 2 min 40 sec) 
Heartbeat CPU  0 instructions:   93000001 cycles:   46767927 heartbeat IPC: 1.89715 cumulative IPC: 1.98854 (Simulation time: 0 hr 2 min 42 sec) 
Heartbeat CPU  0 instructions:   94000003 cycles:   47295928 heartbeat IPC: 1.89394 cumulative IPC: 1.98749 (Simulation time: 0 hr 2 min 44 sec) 
Heartbeat CPU  0 instructions:   95000001 cycles:   47822800 heartbeat IPC: 1.89799 cumulative IPC: 1.98650 (Simulation time: 0 hr 2 min 46 sec) 
Heartbeat CPU  0 instructions:   96000000 cycles:   48349760 heartbeat IPC: 1.89768 cumulative IPC: 1.98553 (Simulation time: 0 hr 2 min 48 sec) 
Heartbeat CPU  0 instructions:   97000003 cycles:   48877456 heartbeat IPC: 1.89504 cumulative IPC: 1.98456 (Simulation time: 0 hr 2 min 49 sec) 
Heartbeat CPU  0 instructions:   98000002 cycles:   49403770 heartbeat IPC: 1.90000 cumulative IPC: 1.98365 (Simulation time: 0 hr 2 min 51 sec) 
Heartbeat CPU  0 instructions:   99000002 cycles:   49930569 heartbeat IPC: 1.89826 cumulative IPC: 1.98275 (Simulation time: 0 hr 2 min 53 sec) 
Heartbeat CPU  0 instructions:  100000000 cycles:   50457857 heartbeat IPC: 1.89649 cumulative IPC: 1.98185 (Simulation time: 0 hr 2 min 55 sec) 

Warmup complete CPU  0 instructions:  100000001 cycles:   50457858 (Simulation time: 0 hr 2 min 55 sec) 

Heartbeat CPU  0 instructions:  101000002 cycles:   51435961 heartbeat IPC: 1.02239 cumulative IPC: 1.02239 (Simulation time: 0 hr 2 min 57 sec) 
Heartbeat CPU  0 instructions:  102000002 cycles:   52413531 heartbeat IPC: 1.02294 cumulative IPC: 1.02267 (Simulation time: 0 hr 2 min 59 sec) 
Heartbeat CPU  0 instructions:  103000000 cycles:   53393856 heartbeat IPC: 1.02007 cumulative IPC: 1.02180 (Simulation time: 0 hr 3 min 1 sec) 
Heartbeat CPU  0 instructions:  104000000 cycles:   54388846 heartbeat IPC: 1.00504 cumulative IPC: 1.01756 (Simulation time: 0 hr 3 min 3 sec) 
Heartbeat CPU  0 instructions:  105000002 cycles:   55385764 heartbeat IPC: 1.00309 cumulative IPC: 1.01463 (Simulation time: 0 hr 3 min 5 sec) 
Heartbeat CPU  0 instructions:  106000000 cycles:   56392837 heartbeat IPC: 0.99297 cumulative IPC: 1.01096 (Simulation time: 0 hr 3 min 7 sec) 
Heartbeat CPU  0 instructions:  107000003 cycles:   57396813 heartbeat IPC: 0.99604 cumulative IPC: 1.00880 (Simulation time: 0 hr 3 min 10 sec) 
Heartbeat CPU  0 instructions:  108000000 cycles:   58388705 heartbeat IPC: 1.00817 cumulative IPC: 1.00872 (Simulation time: 0 hr 3 min 12 sec) 
Heartbeat CPU  0 instructions:  109000002 cycles:   59411729 heartbeat IPC: 0.97750 cumulative IPC: 1.00515 (Simulation time: 0 hr 3 min 14 sec) 
Heartbeat CPU  0 instructions:  110000000 cycles:   60401328 heartbeat IPC: 1.01051 cumulative IPC: 1.00569 (Simulation time: 0 hr 3 min 16 sec) 
Heartbeat CPU  0 instructions:  111000000 cycles:   61385852 heartbeat IPC: 1.01572 cumulative IPC: 1.00659 (Simulation time: 0 hr 3 min 18 sec) 
Heartbeat CPU  0 instructions:  112000000 cycles:   62373370 heartbeat IPC: 1.01264 cumulative IPC: 1.00709 (Simulation time: 0 hr 3 min 20 sec) 
Heartbeat CPU  0 instructions:  113000001 cycles:   63372925 heartbeat IPC: 1.00045 cumulative IPC: 1.00658 (Simulation time: 0 hr 3 min 22 sec) 
Heartbeat CPU  0 instructions:  114000000 cycles:   64370827 heartbeat IPC: 1.00210 cumulative IPC: 1.00626 (Simulation time: 0 hr 3 min 25 sec) 
Heartbeat CPU  0 instructions:  115000001 cycles:   65386941 heartbeat IPC: 0.98414 cumulative IPC: 1.00475 (Simulation time: 0 hr 3 min 27 sec) 
Heartbeat CPU  0 instructions:  116000000 cycles:   66388159 heartbeat IPC: 0.99878 cumulative IPC: 1.00438 (Simulation time: 0 hr 3 min 29 sec) 
Heartbeat CPU  0 instructions:  117000003 cycles:   67389269 heartbeat IPC: 0.99889 cumulative IPC: 1.00405 (Simulation time: 0 hr 3 min 31 sec) 
Heartbeat CPU  0 instructions:  118000000 cycles:   68387477 heartbeat IPC: 1.00179 cumulative IPC: 1.00393 (Simulation time: 0 hr 3 min 33 sec) 
Heartbeat CPU  0 instructions:  119000002 cycles:   69401988 heartbeat IPC: 0.98570 cumulative IPC: 1.00295 (Simulation time: 0 hr 3 min 35 sec) 
Heartbeat CPU  0 instructions:  120000000 cycles:   70397717 heartbeat IPC: 1.00429 cumulative IPC: 1.00302 (Simulation time: 0 hr 3 min 38 sec) 
Heartbeat CPU  0 instructions:  121000003 cycles:   71372253 heartbeat IPC: 1.02613 cumulative IPC: 1.00409 (Simulation time: 0 hr 3 min 40 sec) 
Heartbeat CPU  0 instructions:  122000003 cycles:   72350150 heartbeat IPC: 1.02260 cumulative IPC: 1.00492 (Simulation time: 0 hr 3 min 42 sec) 
Heartbeat CPU  0 instructions:  123000000 cycles:   73328374 heartbeat IPC: 1.02226 cumulative IPC: 1.00566 (Simulation time: 0 hr 3 min 44 sec) 
Heartbeat CPU  0 instructions:  124000000 cycles:   74311163 heartbeat IPC: 1.01751 cumulative IPC: 1.00615 (Simulation time: 0 hr 3 min 46 sec) 
Heartbeat CPU  0 instructions:  125000003 cycles:   75316848 heartbeat IPC: 0.99435 cumulative IPC: 1.00567 (Simulation time: 0 hr 3 min 48 sec) 
Heartbeat CPU  0 instructions:  126000000 cycles:   76306941 heartbeat IPC: 1.01000 cumulative IPC: 1.00584 (Simulation time: 0 hr 3 min 50 sec) 
Heartbeat CPU  0 instructions:  127000000 cycles:   77299643 heartbeat IPC: 1.00735 cumulative IPC: 1.00589 (Simulation time: 0 hr 3 min 53 sec) 
Heartbeat CPU  0 instructions:  128000000 cycles:   78291770 heartbeat IPC: 1.00794 cumulative IPC: 1.00597 (Simulation time: 0 hr 3 min 55 sec) 
Heartbeat CPU  0 instructions:  129000002 cycles:   79287313 heartbeat IPC: 1.00448 cumulative IPC: 1.00592 (Simulation time: 0 hr 3 min 57 sec) 
Heartbeat CPU  0 instructions:  130000001 cycles:   80290977 heartbeat IPC: 0.99635 cumulative IPC: 1.00559 (Simulation time: 0 hr 3 min 59 sec) 
Heartbeat CPU  0 instructions:  131000002 cycles:   81272154 heartbeat IPC: 1.01919 cumulative IPC: 1.00603 (Simulation time: 0 hr 4 min 1 sec) 
Heartbeat CPU  0 instructions:  132000000 cycles:   82248004 heartbeat IPC: 1.02475 cumulative IPC: 1.00660 (Simulation time: 0 hr 4 min 3 sec) 
Heartbeat CPU  0 instructions:  133000000 cycles:   83237228 heartbeat IPC: 1.01089 cumulative IPC: 1.00673 (Simulation time: 0 hr 4 min 5 sec) 
Heartbeat CPU  0 instructions:  134000001 cycles:   84227534 heartbeat IPC: 1.00979 cumulative IPC: 1.00682 (Simulation time: 0 hr 4 min 8 sec) 
Heartbeat CPU  0 instructions:  135000002 cycles:   85222615 heartbeat IPC: 1.00494 cumulative IPC: 1.00677 (Simulation time: 0 hr 4 min 10 sec) 
Heartbeat CPU  0 instructions:  136000000 cycles:   86215761 heartbeat IPC: 1.00690 cumulative IPC: 1.00677 (Simulation time: 0 hr 4 min 12 sec) 
Heartbeat CPU  0 instructions:  137000001 cycles:   87213223 heartbeat IPC: 1.00255 cumulative IPC: 1.00666 (Simulation time: 0 hr 4 min 14 sec) 
Heartbeat CPU  0 instructions:  138000003 cycles:   88203537 heartbeat IPC: 1.00978 cumulative IPC: 1.00674 (Simulation time: 0 hr 4 min 16 sec) 
Heartbeat CPU  0 instructions:  139000000 cycles:   89195459 heartbeat IPC: 1.00814 cumulative IPC: 1.00677 (Simulation time: 0 hr 4 min 18 sec) 
Heartbeat CPU  0 instructions:  140000000 cycles:   90946652 heartbeat IPC: 0.57104 cumulative IPC: 0.98793 (Simulation time: 0 hr 4 min 21 sec) 
Heartbeat CPU  0 instructions:  141000001 cycles:   91861496 heartbeat IPC: 1.09308 cumulative IPC: 0.99025 (Simulation time: 0 hr 4 min 23 sec) 
Heartbeat CPU  0 instructions:  142000001 cycles:   92769562 heartbeat IPC: 1.10124 cumulative IPC: 0.99263 (Simulation time: 0 hr 4 min 25 sec) 
Heartbeat CPU  0 instructions:  143000000 cycles:   93682464 heartbeat IPC: 1.09541 cumulative IPC: 0.99480 (Simulation time: 0 hr 4 min 27 sec) 
Heartbeat CPU  0 instructions:  144000000 cycles:   94581429 heartbeat IPC: 1.11239 cumulative IPC: 0.99720 (Simulation time: 0 hr 4 min 29 sec) 
Heartbeat CPU  0 instructions:  145000001 cycles:   95482073 heartbeat IPC: 1.11032 cumulative IPC: 0.99946 (Simulation time: 0 hr 4 min 31 sec) 
Heartbeat CPU  0 instructions:  146000001 cycles:   96383257 heartbeat IPC: 1.10965 cumulative IPC: 1.00162 (Simulation time: 0 hr 4 min 33 sec) 
Heartbeat CPU  0 instructions:  147000002 cycles:   97809911 heartbeat IPC: 0.70094 cumulative IPC: 0.99257 (Simulation time: 0 hr 4 min 35 sec) 
Heartbeat CPU  0 instructions:  148000000 cycles:   98809306 heartbeat IPC: 1.00060 cumulative IPC: 0.99273 (Simulation time: 0 hr 4 min 37 sec) 
Heartbeat CPU  0 instructions:  149000000 cycles:   99668592 heartbeat IPC: 1.16376 cumulative IPC: 0.99572 (Simulation time: 0 hr 4 min 39 sec) 
Heartbeat CPU  0 instructions:  150000001 cycles:  100520490 heartbeat IPC: 1.17385 cumulative IPC: 0.99875 (Simulation time: 0 hr 4 min 41 sec) 
Heartbeat CPU  0 instructions:  151000002 cycles:  101377174 heartbeat IPC: 1.16729 cumulative IPC: 1.00158 (Simulation time: 0 hr 4 min 43 sec) 
Heartbeat CPU  0 instructions:  152000000 cycles:  102232410 heartbeat IPC: 1.16927 cumulative IPC: 1.00435 (Simulation time: 0 hr 4 min 45 sec) 
Heartbeat CPU  0 instructions:  153000002 cycles:  103081657 heartbeat IPC: 1.17752 cumulative IPC: 1.00715 (Simulation time: 0 hr 4 min 47 sec) 
Heartbeat CPU  0 instructions:  154000000 cycles:  103932627 heartbeat IPC: 1.17513 cumulative IPC: 1.00982 (Simulation time: 0 hr 4 min 49 sec) 
Heartbeat CPU  0 instructions:  155000003 cycles:  105604540 heartbeat IPC: 0.59812 cumulative IPC: 0.99734 (Simulation time: 0 hr 4 min 51 sec) 
Heartbeat CPU  0 instructions:  156000000 cycles:  106512018 heartbeat IPC: 1.10195 cumulative IPC: 0.99903 (Simulation time: 0 hr 4 min 53 sec) 
Heartbeat CPU  0 instructions:  157000003 cycles:  107384298 heartbeat IPC: 1.14642 cumulative IPC: 1.00129 (Simulation time: 0 hr 4 min 55 sec) 
Heartbeat CPU  0 instructions:  158000003 cycles:  108288857 heartbeat IPC: 1.10551 cumulative IPC: 1.00292 (Simulation time: 0 hr 4 min 57 sec) 
Heartbeat CPU  0 instructions:  159000003 cycles:  109208738 heartbeat IPC: 1.08710 cumulative IPC: 1.00424 (Simulation time: 0 hr 4 min 59 sec) 
Heartbeat CPU  0 instructions:  160000000 cycles:  110120751 heartbeat IPC: 1.09647 cumulative IPC: 1.00565 (Simulation time: 0 hr 5 min 1 sec) 
Heartbeat CPU  0 instructions:  161000001 cycles:  111021870 heartbeat IPC: 1.10973 cumulative IPC: 1.00720 (Simulation time: 0 hr 5 min 3 sec) 
Heartbeat CPU  0 instructions:  162000001 cycles:  112520150 heartbeat IPC: 0.66743 cumulative IPC: 0.99900 (Simulation time: 0 hr 5 min 6 sec) 
Heartbeat CPU  0 instructions:  163000002 cycles:  113681502 heartbeat IPC: 0.86107 cumulative IPC: 0.99646 (Simulation time: 0 hr 5 min 8 sec) 
Heartbeat CPU  0 instructions:  164000000 cycles:  114835196 heartbeat IPC: 0.86678 cumulative IPC: 0.99414 (Simulation time: 0 hr 5 min 10 sec) 
Heartbeat CPU  0 instructions:  165000000 cycles:  115964957 heartbeat IPC: 0.88514 cumulative IPC: 0.99226 (Simulation time: 0 hr 5 min 13 sec) 
Heartbeat CPU  0 instructions:  166000002 cycles:  117095915 heartbeat IPC: 0.88421 cumulative IPC: 0.99043 (Simulation time: 0 hr 5 min 15 sec) 
Heartbeat CPU  0 instructions:  167000002 cycles:  118233541 heartbeat IPC: 0.87902 cumulative IPC: 0.98856 (Simulation time: 0 hr 5 min 17 sec) 
Heartbeat CPU  0 instructions:  168000000 cycles:  119400336 heartbeat IPC: 0.85705 cumulative IPC: 0.98633 (Simulation time: 0 hr 5 min 20 sec) 
Heartbeat CPU  0 instructions:  169000002 cycles:  120533865 heartbeat IPC: 0.88220 cumulative IPC: 0.98465 (Simulation time: 0 hr 5 min 22 sec) 
Heartbeat CPU  0 instructions:  170000002 cycles:  121664927 heartbeat IPC: 0.88412 cumulative IPC: 0.98305 (Simulation time: 0 hr 5 min 25 sec) 
Heartbeat CPU  0 instructions:  171000003 cycles:  122795863 heartbeat IPC: 0.88422 cumulative IPC: 0.98150 (Simulation time: 0 hr 5 min 27 sec) 
Heartbeat CPU  0 instructions:  172000000 cycles:  123942190 heartbeat IPC: 0.87235 cumulative IPC: 0.97980 (Simulation time: 0 hr 5 min 29 sec) 
Heartbeat CPU  0 instructions:  173000003 cycles:  125067758 heartbeat IPC: 0.88844 cumulative IPC: 0.97842 (Simulation time: 0 hr 5 min 32 sec) 
Heartbeat CPU  0 instructions:  174000000 cycles:  126192630 heartbeat IPC: 0.88899 cumulative IPC: 0.97709 (Simulation time: 0 hr 5 min 34 sec) 
Heartbeat CPU  0 instructions:  175000000 cycles:  127317612 heartbeat IPC: 0.88890 cumulative IPC: 0.97580 (Simulation time: 0 hr 5 min 36 sec) 
Heartbeat CPU  0 instructions:  176000000 cycles:  128433290 heartbeat IPC: 0.89632 cumulative IPC: 0.97467 (Simulation time: 0 hr 5 min 39 sec) 
Heartbeat CPU  0 instructions:  177000003 cycles:  129565478 heartbeat IPC: 0.88325 cumulative IPC: 0.97336 (Simulation time: 0 hr 5 min 41 sec) 
Heartbeat CPU  0 instructions:  178000001 cycles:  130683935 heartbeat IPC: 0.89409 cumulative IPC: 0.97225 (Simulation time: 0 hr 5 min 44 sec) 
Heartbeat CPU  0 instructions:  179000000 cycles:  131817294 heartbeat IPC: 0.88233 cumulative IPC: 0.97100 (Simulation time: 0 hr 5 min 46 sec) 
Heartbeat CPU  0 instructions:  180000000 cycles:  132941299 heartbeat IPC: 0.88968 cumulative IPC: 0.96989 (Simulation time: 0 hr 5 min 48 sec) 
Heartbeat CPU  0 instructions:  181000000 cycles:  134098614 heartbeat IPC: 0.86407 cumulative IPC: 0.96843 (Simulation time: 0 hr 5 min 51 sec) 
Heartbeat CPU  0 instructions:  182000001 cycles:  135230560 heartbeat IPC: 0.88344 cumulative IPC: 0.96729 (Simulation time: 0 hr 5 min 53 sec) 
Heartbeat CPU  0 instructions:  183000003 cycles:  136362028 heartbeat IPC: 0.88381 cumulative IPC: 0.96619 (Simulation time: 0 hr 5 min 56 sec) 
Heartbeat CPU  0 instructions:  184000000 cycles:  137493439 heartbeat IPC: 0.88385 cumulative IPC: 0.96512 (Simulation time: 0 hr 5 min 58 sec) 
Heartbeat CPU  0 instructions:  185000000 cycles:  138644951 heartbeat IPC: 0.86842 cumulative IPC: 0.96386 (Simulation time: 0 hr 6 min 0 sec) 
Heartbeat CPU  0 instructions:  186000002 cycles:  139772061 heartbeat IPC: 0.88723 cumulative IPC: 0.96289 (Simulation time: 0 hr 6 min 3 sec) 
Heartbeat CPU  0 instructions:  187000001 cycles:  140904812 heartbeat IPC: 0.88281 cumulative IPC: 0.96189 (Simulation time: 0 hr 6 min 5 sec) 
Heartbeat CPU  0 instructions:  188000000 cycles:  142035541 heartbeat IPC: 0.88438 cumulative IPC: 0.96093 (Simulation time: 0 hr 6 min 7 sec) 
Heartbeat CPU  0 instructions:  189000001 cycles:  143189617 heartbeat IPC: 0.86649 cumulative IPC: 0.95976 (Simulation time: 0 hr 6 min 10 sec) 
Heartbeat CPU  0 instructions:  190000002 cycles:  144325666 heartbeat IPC: 0.88024 cumulative IPC: 0.95880 (Simulation time: 0 hr 6 min 12 sec) 
Heartbeat CPU  0 instructions:  191000001 cycles:  145458978 heartbeat IPC: 0.88237 cumulative IPC: 0.95788 (Simulation time: 0 hr 6 min 15 sec) 
Heartbeat CPU  0 instructions:  192000000 cycles:  146589907 heartbeat IPC: 0.88423 cumulative IPC: 0.95702 (Simulation time: 0 hr 6 min 17 sec) 
Heartbeat CPU  0 instructions:  193000003 cycles:  147721772 heartbeat IPC: 0.88350 cumulative IPC: 0.95616 (Simulation time: 0 hr 6 min 19 sec) 
Heartbeat CPU  0 instructions:  194000002 cycles:  149157368 heartbeat IPC: 0.69657 cumulative IPC: 0.95239 (Simulation time: 0 hr 6 min 22 sec) 
Heartbeat CPU  0 instructions:  195000001 cycles:  150564522 heartbeat IPC: 0.71065 cumulative IPC: 0.94899 (Simulation time: 0 hr 6 min 24 sec) 
Heartbeat CPU  0 instructions:  196000000 cycles:  151671116 heartbeat IPC: 0.90367 cumulative IPC: 0.94849 (Simulation time: 0 hr 6 min 26 sec) 
Heartbeat CPU  0 instructions:  197000003 cycles:  152622263 heartbeat IPC: 1.05137 cumulative IPC: 0.94945 (Simulation time: 0 hr 6 min 29 sec) 
Heartbeat CPU  0 instructions:  198000000 cycles:  153505513 heartbeat IPC: 1.13218 cumulative IPC: 0.95102 (Simulation time: 0 hr 6 min 31 sec) 
Heartbeat CPU  0 instructions:  199000000 cycles:  154440401 heartbeat IPC: 1.06965 cumulative IPC: 0.95208 (Simulation time: 0 hr 6 min 33 sec) 
Heartbeat CPU  0 instructions:  200000000 cycles:  155363441 heartbeat IPC: 1.08338 cumulative IPC: 0.95324 (Simulation time: 0 hr 6 min 35 sec) 
Heartbeat CPU  0 instructions:  201000002 cycles:  156258334 heartbeat IPC: 1.11745 cumulative IPC: 0.95463 (Simulation time: 0 hr 6 min 37 sec) 
Heartbeat CPU  0 instructions:  202000000 cycles:  157182606 heartbeat IPC: 1.08193 cumulative IPC: 0.95573 (Simulation time: 0 hr 6 min 39 sec) 
Heartbeat CPU  0 instructions:  203000001 cycles:  158067210 heartbeat IPC: 1.13045 cumulative IPC: 0.95717 (Simulation time: 0 hr 6 min 41 sec) 
Heartbeat CPU  0 instructions:  204000000 cycles:  158976511 heartbeat IPC: 1.09974 cumulative IPC: 0.95836 (Simulation time: 0 hr 6 min 43 sec) 
Heartbeat CPU  0 instructions:  205000002 cycles:  159895098 heartbeat IPC: 1.08863 cumulative IPC: 0.95945 (Simulation time: 0 hr 6 min 45 sec) 
Heartbeat CPU  0 instructions:  206000003 cycles:  160765533 heartbeat IPC: 1.14885 cumulative IPC: 0.96095 (Simulation time: 0 hr 6 min 48 sec) 
Heartbeat CPU  0 instructions:  207000001 cycles:  161656215 heartbeat IPC: 1.12273 cumulative IPC: 0.96224 (Simulation time: 0 hr 6 min 50 sec) 
Heartbeat CPU  0 instructions:  208000000 cycles:  162559695 heartbeat IPC: 1.10683 cumulative IPC: 0.96341 (Simulation time: 0 hr 6 min 52 sec) 
Heartbeat CPU  0 instructions:  209000001 cycles:  163457734 heartbeat IPC: 1.11354 cumulative IPC: 0.96460 (Simulation time: 0 hr 6 min 54 sec) 
Heartbeat CPU  0 instructions:  210000003 cycles:  164375214 heartbeat IPC: 1.08994 cumulative IPC: 0.96561 (Simulation time: 0 hr 6 min 56 sec) 
Heartbeat CPU  0 instructions:  211000002 cycles:  165261840 heartbeat IPC: 1.12787 cumulative IPC: 0.96687 (Simulation time: 0 hr 6 min 58 sec) 
Heartbeat CPU  0 instructions:  212000000 cycles:  166145684 heartbeat IPC: 1.13142 cumulative IPC: 0.96812 (Simulation time: 0 hr 7 min 0 sec) 
Heartbeat CPU  0 instructions:  213000003 cycles:  167046145 heartbeat IPC: 1.11055 cumulative IPC: 0.96922 (Simulation time: 0 hr 7 min 2 sec) 
Heartbeat CPU  0 instructions:  214000001 cycles:  167931720 heartbeat IPC: 1.12921 cumulative IPC: 0.97043 (Simulation time: 0 hr 7 min 4 sec) 
Heartbeat CPU  0 instructions:  215000002 cycles:  168847721 heartbeat IPC: 1.09170 cumulative IPC: 0.97137 (Simulation time: 0 hr 7 min 6 sec) 
Heartbeat CPU  0 instructions:  216000000 cycles:  169728765 heartbeat IPC: 1.13501 cumulative IPC: 0.97258 (Simulation time: 0 hr 7 min 8 sec) 
Heartbeat CPU  0 instructions:  217000002 cycles:  170619417 heartbeat IPC: 1.12278 cumulative IPC: 0.97369 (Simulation time: 0 hr 7 min 10 sec) 
Heartbeat CPU  0 instructions:  218000000 cycles:  171528220 heartbeat IPC: 1.10035 cumulative IPC: 0.97464 (Simulation time: 0 hr 7 min 12 sec) 
Heartbeat CPU  0 instructions:  219000003 cycles:  172418543 heartbeat IPC: 1.12319 cumulative IPC: 0.97572 (Simulation time: 0 hr 7 min 14 sec) 
Heartbeat CPU  0 instructions:  220000000 cycles:  173321868 heartbeat IPC: 1.10702 cumulative IPC: 0.97669 (Simulation time: 0 hr 7 min 16 sec) 
Heartbeat CPU  0 instructions:  221000002 cycles:  174208790 heartbeat IPC: 1.12750 cumulative IPC: 0.97777 (Simulation time: 0 hr 7 min 18 sec) 
Heartbeat CPU  0 instructions:  222000001 cycles:  175093770 heartbeat IPC: 1.12997 cumulative IPC: 0.97885 (Simulation time: 0 hr 7 min 20 sec) 
Heartbeat CPU  0 instructions:  223000000 cycles:  175989551 heartbeat IPC: 1.11634 cumulative IPC: 0.97983 (Simulation time: 0 hr 7 min 23 sec) 
Heartbeat CPU  0 instructions:  224000000 cycles:  176889530 heartbeat IPC: 1.11114 cumulative IPC: 0.98077 (Simulation time: 0 hr 7 min 25 sec) 
Heartbeat CPU  0 instructions:  225000001 cycles:  177770120 heartbeat IPC: 1.13560 cumulative IPC: 0.98184 (Simulation time: 0 hr 7 min 27 sec) 
Heartbeat CPU  0 instructions:  226000003 cycles:  178668788 heartbeat IPC: 1.11276 cumulative IPC: 0.98276 (Simulation time: 0 hr 7 min 29 sec) 
Heartbeat CPU  0 instructions:  227000001 cycles:  179558970 heartbeat IPC: 1.12336 cumulative IPC: 0.98373 (Simulation time: 0 hr 7 min 31 sec) 
Heartbeat CPU  0 instructions:  228000000 cycles:  180453481 heartbeat IPC: 1.11793 cumulative IPC: 0.98465 (Simulation time: 0 hr 7 min 33 sec) 
Heartbeat CPU  0 instructions:  229000002 cycles:  181357825 heartbeat IPC: 1.10578 cumulative IPC: 0.98549 (Simulation time: 0 hr 7 min 35 sec) 
Heartbeat CPU  0 instructions:  230000002 cycles:  182237193 heartbeat IPC: 1.13718 cumulative IPC: 0.98650 (Simulation time: 0 hr 7 min 37 sec) 
Heartbeat CPU  0 instructions:  231000001 cycles:  183130510 heartbeat IPC: 1.11942 cumulative IPC: 0.98739 (Simulation time: 0 hr 7 min 39 sec) 
Heartbeat CPU  0 instructions:  232000000 cycles:  184018373 heartbeat IPC: 1.12630 cumulative IPC: 0.98832 (Simulation time: 0 hr 7 min 41 sec) 
Heartbeat CPU  0 instructions:  233000000 cycles:  184899063 heartbeat IPC: 1.13547 cumulative IPC: 0.98928 (Simulation time: 0 hr 7 min 43 sec) 
Heartbeat CPU  0 instructions:  234000002 cycles:  185800944 heartbeat IPC: 1.10880 cumulative IPC: 0.99008 (Simulation time: 0 hr 7 min 45 sec) 
Heartbeat CPU  0 instructions:  235000003 cycles:  186685007 heartbeat IPC: 1.13114 cumulative IPC: 0.99099 (Simulation time: 0 hr 7 min 47 sec) 
Heartbeat CPU  0 instructions:  236000000 cycles:  187582470 heartbeat IPC: 1.11425 cumulative IPC: 0.99180 (Simulation time: 0 hr 7 min 49 sec) 
Heartbeat CPU  0 instructions:  237000000 cycles:  188470903 heartbeat IPC: 1.12558 cumulative IPC: 0.99266 (Simulation time: 0 hr 7 min 51 sec) 
Heartbeat CPU  0 instructions:  238000001 cycles:  189343473 heartbeat IPC: 1.14604 cumulative IPC: 0.99362 (Simulation time: 0 hr 7 min 53 sec) 
Heartbeat CPU  0 instructions:  239000003 cycles:  190230921 heartbeat IPC: 1.12683 cumulative IPC: 0.99447 (Simulation time: 0 hr 7 min 55 sec) 
Heartbeat CPU  0 instructions:  240000000 cycles:  191121353 heartbeat IPC: 1.12305 cumulative IPC: 0.99528 (Simulation time: 0 hr 7 min 58 sec) 
Heartbeat CPU  0 instructions:  241000000 cycles:  192016278 heartbeat IPC: 1.11741 cumulative IPC: 0.99606 (Simulation time: 0 hr 8 min 0 sec) 
Heartbeat CPU  0 instructions:  242000000 cycles:  192906222 heartbeat IPC: 1.12367 cumulative IPC: 0.99685 (Simulation time: 0 hr 8 min 2 sec) 
Heartbeat CPU  0 instructions:  243000003 cycles:  193780066 heartbeat IPC: 1.14437 cumulative IPC: 0.99775 (Simulation time: 0 hr 8 min 4 sec) 
Heartbeat CPU  0 instructions:  244000000 cycles:  194667598 heartbeat IPC: 1.12672 cumulative IPC: 0.99855 (Simulation time: 0 hr 8 min 6 sec) 
Heartbeat CPU  0 instructions:  245000000 cycles:  195557804 heartbeat IPC: 1.12334 cumulative IPC: 0.99931 (Simulation time: 0 hr 8 min 8 sec) 
Heartbeat CPU  0 instructions:  246000002 cycles:  196461524 heartbeat IPC: 1.10654 cumulative IPC: 0.99997 (Simulation time: 0 hr 8 min 10 sec) 
Heartbeat CPU  0 instructions:  247000000 cycles:  197362767 heartbeat IPC: 1.10958 cumulative IPC: 1.00065 (Simulation time: 0 hr 8 min 12 sec) 
Heartbeat CPU  0 instructions:  248000000 cycles:  198227329 heartbeat IPC: 1.15666 cumulative IPC: 1.00156 (Simulation time: 0 hr 8 min 14 sec) 
Heartbeat CPU  0 instructions:  249000000 cycles:  199123254 heartbeat IPC: 1.11616 cumulative IPC: 1.00225 (Simulation time: 0 hr 8 min 16 sec) 
Heartbeat CPU  0 instructions:  250000001 cycles:  200017225 heartbeat IPC: 1.11861 cumulative IPC: 1.00295 (Simulation time: 0 hr 8 min 18 sec) 
Heartbeat CPU  0 instructions:  251000003 cycles:  200918912 heartbeat IPC: 1.10903 cumulative IPC: 1.00358 (Simulation time: 0 hr 8 min 20 sec) 
Heartbeat CPU  0 instructions:  252000000 cycles:  201814842 heartbeat IPC: 1.11616 cumulative IPC: 1.00425 (Simulation time: 0 hr 8 min 22 sec) 
Heartbeat CPU  0 instructions:  253000000 cycles:  202680139 heartbeat IPC: 1.15567 cumulative IPC: 1.00511 (Simulation time: 0 hr 8 min 24 sec) 
Heartbeat CPU  0 instructions:  254000000 cycles:  203581192 heartbeat IPC: 1.10981 cumulative IPC: 1.00573 (Simulation time: 0 hr 8 min 26 sec) 
Heartbeat CPU  0 instructions:  255000003 cycles:  204480860 heartbeat IPC: 1.11152 cumulative IPC: 1.00634 (Simulation time: 0 hr 8 min 28 sec) 
Heartbeat CPU  0 instructions:  256000000 cycles:  205372505 heartbeat IPC: 1.12152 cumulative IPC: 1.00701 (Simulation time: 0 hr 8 min 30 sec) 
Heartbeat CPU  0 instructions:  257000003 cycles:  206268757 heartbeat IPC: 1.11576 cumulative IPC: 1.00763 (Simulation time: 0 hr 8 min 32 sec) 
Heartbeat CPU  0 instructions:  258000000 cycles:  207141893 heartbeat IPC: 1.14529 cumulative IPC: 1.00840 (Simulation time: 0 hr 8 min 35 sec) 
Heartbeat CPU  0 instructions:  259000003 cycles:  208034516 heartbeat IPC: 1.12030 cumulative IPC: 1.00903 (Simulation time: 0 hr 8 min 37 sec) 
Heartbeat CPU  0 instructions:  260000000 cycles:  208931072 heartbeat IPC: 1.11538 cumulative IPC: 1.00963 (Simulation time: 0 hr 8 min 39 sec) 
Heartbeat CPU  0 instructions:  261000001 cycles:  209821131 heartbeat IPC: 1.12352 cumulative IPC: 1.01027 (Simulation time: 0 hr 8 min 41 sec) 
Heartbeat CPU  0 instructions:  262000000 cycles:  210729202 heartbeat IPC: 1.10123 cumulative IPC: 1.01079 (Simulation time: 0 hr 8 min 43 sec) 
Heartbeat CPU  0 instructions:  263000000 cycles:  211607633 heartbeat IPC: 1.13839 cumulative IPC: 1.01148 (Simulation time: 0 hr 8 min 45 sec) 
Heartbeat CPU  0 instructions:  264000000 cycles:  212499583 heartbeat IPC: 1.12114 cumulative IPC: 1.01208 (Simulation time: 0 hr 8 min 47 sec) 
Heartbeat CPU  0 instructions:  265000002 cycles:  213405993 heartbeat IPC: 1.10326 cumulative IPC: 1.01259 (Simulation time: 0 hr 8 min 49 sec) 
Heartbeat CPU  0 instructions:  266000001 cycles:  214276329 heartbeat IPC: 1.14898 cumulative IPC: 1.01332 (Simulation time: 0 hr 8 min 51 sec) 
Heartbeat CPU  0 instructions:  267000000 cycles:  215196408 heartbeat IPC: 1.08686 cumulative IPC: 1.01373 (Simulation time: 0 hr 8 min 53 sec) 
Heartbeat CPU  0 instructions:  268000000 cycles:  216097332 heartbeat IPC: 1.10997 cumulative IPC: 1.01425 (Simulation time: 0 hr 8 min 55 sec) 
Heartbeat CPU  0 instructions:  269000003 cycles:  216989700 heartbeat IPC: 1.12062 cumulative IPC: 1.01482 (Simulation time: 0 hr 8 min 57 sec) 
Heartbeat CPU  0 instructions:  270000002 cycles:  217901359 heartbeat IPC: 1.09690 cumulative IPC: 1.01527 (Simulation time: 0 hr 8 min 59 sec) 
Heartbeat CPU  0 instructions:  271000000 cycles:  218775352 heartbeat IPC: 1.14417 cumulative IPC: 1.01594 (Simulation time: 0 hr 9 min 1 sec) 
Heartbeat CPU  0 instructions:  272000000 cycles:  219696097 heartbeat IPC: 1.08608 cumulative IPC: 1.01632 (Simulation time: 0 hr 9 min 3 sec) 
Heartbeat CPU  0 instructions:  273000002 cycles:  220598963 heartbeat IPC: 1.10759 cumulative IPC: 1.01680 (Simulation time: 0 hr 9 min 5 sec) 
Heartbeat CPU  0 instructions:  274000002 cycles:  221482306 heartbeat IPC: 1.13206 cumulative IPC: 1.01740 (Simulation time: 0 hr 9 min 7 sec) 
Heartbeat CPU  0 instructions:  275000001 cycles:  222397056 heartbeat IPC: 1.09319 cumulative IPC: 1.01780 (Simulation time: 0 hr 9 min 10 sec) 
Heartbeat CPU  0 instructions:  276000000 cycles:  223284637 heartbeat IPC: 1.12666 cumulative IPC: 1.01836 (Simulation time: 0 hr 9 min 12 sec) 
Heartbeat CPU  0 instructions:  277000003 cycles:  224206153 heartbeat IPC: 1.08517 cumulative IPC: 1.01872 (Simulation time: 0 hr 9 min 14 sec) 
Heartbeat CPU  0 instructions:  278000002 cycles:  225119061 heartbeat IPC: 1.09540 cumulative IPC: 1.01912 (Simulation time: 0 hr 9 min 16 sec) 
Heartbeat CPU  0 instructions:  279000003 cycles:  225993881 heartbeat IPC: 1.14309 cumulative IPC: 1.01973 (Simulation time: 0 hr 9 min 18 sec) 
Heartbeat CPU  0 instructions:  280000000 cycles:  226896026 heartbeat IPC: 1.10847 cumulative IPC: 1.02019 (Simulation time: 0 hr 9 min 20 sec) 
Heartbeat CPU  0 instructions:  281000002 cycles:  227790965 heartbeat IPC: 1.11740 cumulative IPC: 1.02068 (Simulation time: 0 hr 9 min 22 sec) 
Heartbeat CPU  0 instructions:  282000001 cycles:  228700775 heartbeat IPC: 1.09913 cumulative IPC: 1.02108 (Simulation time: 0 hr 9 min 24 sec) 
Heartbeat CPU  0 instructions:  283000002 cycles:  229621343 heartbeat IPC: 1.08629 cumulative IPC: 1.02141 (Simulation time: 0 hr 9 min 26 sec) 
Heartbeat CPU  0 instructions:  284000000 cycles:  230484833 heartbeat IPC: 1.15809 cumulative IPC: 1.02207 (Simulation time: 0 hr 9 min 28 sec) 
Heartbeat CPU  0 instructions:  285000002 cycles:  231382020 heartbeat IPC: 1.11460 cumulative IPC: 1.02253 (Simulation time: 0 hr 9 min 30 sec) 
Heartbeat CPU  0 instructions:  286000000 cycles:  232284024 heartbeat IPC: 1.10864 cumulative IPC: 1.02296 (Simulation time: 0 hr 9 min 32 sec) 
Heartbeat CPU  0 instructions:  287000001 cycles:  233173040 heartbeat IPC: 1.12484 cumulative IPC: 1.02345 (Simulation time: 0 hr 9 min 34 sec) 
Heartbeat CPU  0 instructions:  288000000 cycles:  234093590 heartbeat IPC: 1.08631 cumulative IPC: 1.02377 (Simulation time: 0 hr 9 min 36 sec) 
Heartbeat CPU  0 instructions:  289000000 cycles:  234966495 heartbeat IPC: 1.14560 cumulative IPC: 1.02434 (Simulation time: 0 hr 9 min 38 sec) 
Heartbeat CPU  0 instructions:  290000000 cycles:  235863022 heartbeat IPC: 1.11542 cumulative IPC: 1.02478 (Simulation time: 0 hr 9 min 40 sec) 
Heartbeat CPU  0 instructions:  291000002 cycles:  236773465 heartbeat IPC: 1.09837 cumulative IPC: 1.02514 (Simulation time: 0 hr 9 min 42 sec) 
Heartbeat CPU  0 instructions:  292000000 cycles:  237655974 heartbeat IPC: 1.13313 cumulative IPC: 1.02565 (Simulation time: 0 hr 9 min 44 sec) 
Heartbeat CPU  0 instructions:  293000001 cycles:  238566984 heartbeat IPC: 1.09768 cumulative IPC: 1.02600 (Simulation time: 0 hr 9 min 46 sec) 
Heartbeat CPU  0 instructions:  294000002 cycles:  239458997 heartbeat IPC: 1.12106 cumulative IPC: 1.02645 (Simulation time: 0 hr 9 min 49 sec) 
Heartbeat CPU  0 instructions:  295000003 cycles:  240347612 heartbeat IPC: 1.12535 cumulative IPC: 1.02691 (Simulation time: 0 hr 9 min 51 sec) 
Heartbeat CPU  0 instructions:  296000000 cycles:  241256527 heartbeat IPC: 1.10021 cumulative IPC: 1.02726 (Simulation time: 0 hr 9 min 53 sec) 
Heartbeat CPU  0 instructions:  297000003 cycles:  242141919 heartbeat IPC: 1.12945 cumulative IPC: 1.02773 (Simulation time: 0 hr 9 min 55 sec) 
Heartbeat CPU  0 instructions:  298000002 cycles:  243038309 heartbeat IPC: 1.11558 cumulative IPC: 1.02814 (Simulation time: 0 hr 9 min 57 sec) 
Heartbeat CPU  0 instructions:  299000003 cycles:  243931443 heartbeat IPC: 1.11965 cumulative IPC: 1.02856 (Simulation time: 0 hr 9 min 59 sec) 
Heartbeat CPU  0 instructions:  300000000 cycles:  244809339 heartbeat IPC: 1.13908 cumulative IPC: 1.02906 (Simulation time: 0 hr 10 min 1 sec) 
Heartbeat CPU  0 instructions:  301000000 cycles:  245712951 heartbeat IPC: 1.10667 cumulative IPC: 1.02942 (Simulation time: 0 hr 10 min 3 sec) 
Heartbeat CPU  0 instructions:  302000003 cycles:  246614328 heartbeat IPC: 1.10942 cumulative IPC: 1.02979 (Simulation time: 0 hr 10 min 5 sec) 
Heartbeat CPU  0 instructions:  303000002 cycles:  247500458 heartbeat IPC: 1.12850 cumulative IPC: 1.03023 (Simulation time: 0 hr 10 min 7 sec) 
Heartbeat CPU  0 instructions:  304000000 cycles:  248394954 heartbeat IPC: 1.11795 cumulative IPC: 1.03063 (Simulation time: 0 hr 10 min 9 sec) 
Heartbeat CPU  0 instructions:  305000001 cycles:  249278780 heartbeat IPC: 1.13145 cumulative IPC: 1.03108 (Simulation time: 0 hr 10 min 11 sec) 
Heartbeat CPU  0 instructions:  306000003 cycles:  250168481 heartbeat IPC: 1.12398 cumulative IPC: 1.03149 (Simulation time: 0 hr 10 min 13 sec) 
Heartbeat CPU  0 instructions:  307000000 cycles:  251065505 heartbeat IPC: 1.11479 cumulative IPC: 1.03187 (Simulation time: 0 hr 10 min 15 sec) 
Heartbeat CPU  0 instructions:  308000000 cycles:  251955900 heartbeat IPC: 1.12310 cumulative IPC: 1.03227 (Simulation time: 0 hr 10 min 17 sec) 
Heartbeat CPU  0 instructions:  309000000 cycles:  252852935 heartbeat IPC: 1.11478 cumulative IPC: 1.03263 (Simulation time: 0 hr 10 min 19 sec) 
Heartbeat CPU  0 instructions:  310000003 cycles:  253742304 heartbeat IPC: 1.12440 cumulative IPC: 1.03304 (Simulation time: 0 hr 10 min 21 sec) 
Heartbeat CPU  0 instructions:  311000001 cycles:  254620006 heartbeat IPC: 1.13934 cumulative IPC: 1.03349 (Simulation time: 0 hr 10 min 23 sec) 
Heartbeat CPU  0 instructions:  312000000 cycles:  255508668 heartbeat IPC: 1.12529 cumulative IPC: 1.03389 (Simulation time: 0 hr 10 min 26 sec) 
Heartbeat CPU  0 instructions:  313000001 cycles:  256402588 heartbeat IPC: 1.11867 cumulative IPC: 1.03426 (Simulation time: 0 hr 10 min 28 sec) 
Heartbeat CPU  0 instructions:  314000000 cycles:  257293889 heartbeat IPC: 1.12195 cumulative IPC: 1.03464 (Simulation time: 0 hr 10 min 30 sec) 
Heartbeat CPU  0 instructions:  315000000 cycles:  258190984 heartbeat IPC: 1.11471 cumulative IPC: 1.03498 (Simulation time: 0 hr 10 min 32 sec) 
Heartbeat CPU  0 instructions:  316000000 cycles:  259056409 heartbeat IPC: 1.15550 cumulative IPC: 1.03548 (Simulation time: 0 hr 10 min 34 sec) 
Heartbeat CPU  0 instructions:  317000000 cycles:  259951925 heartbeat IPC: 1.11667 cumulative IPC: 1.03583 (Simulation time: 0 hr 10 min 36 sec) 
Heartbeat CPU  0 instructions:  318000000 cycles:  260844379 heartbeat IPC: 1.12051 cumulative IPC: 1.03619 (Simulation time: 0 hr 10 min 38 sec) 
Heartbeat CPU  0 instructions:  319000001 cycles:  261734902 heartbeat IPC: 1.12294 cumulative IPC: 1.03655 (Simulation time: 0 hr 10 min 40 sec) 
Heartbeat CPU  0 instructions:  320000000 cycles:  262635143 heartbeat IPC: 1.11081 cumulative IPC: 1.03687 (Simulation time: 0 hr 10 min 42 sec) 
Heartbeat CPU  0 instructions:  321000003 cycles:  263499530 heartbeat IPC: 1.15689 cumulative IPC: 1.03736 (Simulation time: 0 hr 10 min 44 sec) 
Heartbeat CPU  0 instructions:  322000003 cycles:  264393636 heartbeat IPC: 1.11844 cumulative IPC: 1.03769 (Simulation time: 0 hr 10 min 46 sec) 
Heartbeat CPU  0 instructions:  323000003 cycles:  265285812 heartbeat IPC: 1.12086 cumulative IPC: 1.03804 (Simulation time: 0 hr 10 min 48 sec) 
Heartbeat CPU  0 instructions:  324000000 cycles:  266178051 heartbeat IPC: 1.12077 cumulative IPC: 1.03838 (Simulation time: 0 hr 10 min 50 sec) 
Heartbeat CPU  0 instructions:  325000000 cycles:  267070404 heartbeat IPC: 1.12063 cumulative IPC: 1.03872 (Simulation time: 0 hr 10 min 52 sec) 
Heartbeat CPU  0 instructions:  326000001 cycles:  267930631 heartbeat IPC: 1.16249 cumulative IPC: 1.03921 (Simulation time: 0 hr 10 min 54 sec) 
Heartbeat CPU  0 instructions:  327000001 cycles:  268820497 heartbeat IPC: 1.12376 cumulative IPC: 1.03956 (Simulation time: 0 hr 10 min 56 sec) 
Heartbeat CPU  0 instructions:  328000000 cycles:  269714990 heartbeat IPC: 1.11795 cumulative IPC: 1.03987 (Simulation time: 0 hr 10 min 58 sec) 
Heartbeat CPU  0 instructions:  329000000 cycles:  270607431 heartbeat IPC: 1.12052 cumulative IPC: 1.04020 (Simulation time: 0 hr 11 min 0 sec) 
Heartbeat CPU  0 instructions:  330000000 cycles:  271494359 heartbeat IPC: 1.12749 cumulative IPC: 1.04055 (Simulation time: 0 hr 11 min 2 sec) 
Heartbeat CPU  0 instructions:  331000003 cycles:  272378449 heartbeat IPC: 1.13111 cumulative IPC: 1.04091 (Simulation time: 0 hr 11 min 5 sec) 
Heartbeat CPU  0 instructions:  332000000 cycles:  273271810 heartbeat IPC: 1.11936 cumulative IPC: 1.04123 (Simulation time: 0 hr 11 min 7 sec) 
Heartbeat CPU  0 instructions:  333000002 cycles:  274171960 heartbeat IPC: 1.11093 cumulative IPC: 1.04151 (Simulation time: 0 hr 11 min 9 sec) 
Heartbeat CPU  0 instructions:  334000003 cycles:  275058977 heartbeat IPC: 1.12738 cumulative IPC: 1.04185 (Simulation time: 0 hr 11 min 11 sec) 
Heartbeat CPU  0 instructions:  335000000 cycles:  275953727 heartbeat IPC: 1.11763 cumulative IPC: 1.04215 (Simulation time: 0 hr 11 min 13 sec) 
Heartbeat CPU  0 instructions:  336000000 cycles:  276834585 heartbeat IPC: 1.13526 cumulative IPC: 1.04251 (Simulation time: 0 hr 11 min 15 sec) 
Heartbeat CPU  0 instructions:  337000001 cycles:  277721336 heartbeat IPC: 1.12771 cumulative IPC: 1.04284 (Simulation time: 0 hr 11 min 17 sec) 
Heartbeat CPU  0 instructions:  338000003 cycles:  278615569 heartbeat IPC: 1.11828 cumulative IPC: 1.04314 (Simulation time: 0 hr 11 min 19 sec) 
Heartbeat CPU  0 instructions:  339000000 cycles:  279489166 heartbeat IPC: 1.14469 cumulative IPC: 1.04353 (Simulation time: 0 hr 11 min 21 sec) 
Heartbeat CPU  0 instructions:  340000000 cycles:  280392712 heartbeat IPC: 1.10675 cumulative IPC: 1.04377 (Simulation time: 0 hr 11 min 23 sec) 
Heartbeat CPU  0 instructions:  341000002 cycles:  281278907 heartbeat IPC: 1.12842 cumulative IPC: 1.04410 (Simulation time: 0 hr 11 min 25 sec) 
Heartbeat CPU  0 instructions:  342000001 cycles:  282174398 heartbeat IPC: 1.11670 cumulative IPC: 1.04438 (Simulation time: 0 hr 11 min 27 sec) 
Heartbeat CPU  0 instructions:  343000001 cycles:  283075818 heartbeat IPC: 1.10936 cumulative IPC: 1.04463 (Simulation time: 0 hr 11 min 29 sec) 
Heartbeat CPU  0 instructions:  344000000 cycles:  283943600 heartbeat IPC: 1.15236 cumulative IPC: 1.04503 (Simulation time: 0 hr 11 min 31 sec) 
Heartbeat CPU  0 instructions:  345000001 cycles:  284857706 heartbeat IPC: 1.09397 cumulative IPC: 1.04522 (Simulation time: 0 hr 11 min 33 sec) 
Heartbeat CPU  0 instructions:  346000001 cycles:  285754636 heartbeat IPC: 1.11491 cumulative IPC: 1.04549 (Simulation time: 0 hr 11 min 35 sec) 
Heartbeat CPU  0 instructions:  347000003 cycles:  287243368 heartbeat IPC: 0.67171 cumulative IPC: 1.04314 (Simulation time: 0 hr 11 min 38 sec) 
Heartbeat CPU  0 instructions:  348000000 cycles:  288476139 heartbeat IPC: 0.81118 cumulative IPC: 1.04194 (Simulation time: 0 hr 11 min 40 sec) 
Heartbeat CPU  0 instructions:  349000002 cycles:  289589234 heartbeat IPC: 0.89840 cumulative IPC: 1.04127 (Simulation time: 0 hr 11 min 42 sec) 
Heartbeat CPU  0 instructions:  350000000 cycles:  290725248 heartbeat IPC: 0.88027 cumulative IPC: 1.04051 (Simulation time: 0 hr 11 min 44 sec) 
Heartbeat CPU  0 instructions:  351000002 cycles:  291832291 heartbeat IPC: 0.90331 cumulative IPC: 1.03988 (Simulation time: 0 hr 11 min 46 sec) 
Heartbeat CPU  0 instructions:  352000000 cycles:  292943498 heartbeat IPC: 0.89992 cumulative IPC: 1.03924 (Simulation time: 0 hr 11 min 48 sec) 
Heartbeat CPU  0 instructions:  353000000 cycles:  294058877 heartbeat IPC: 0.89656 cumulative IPC: 1.03858 (Simulation time: 0 hr 11 min 50 sec) 
Heartbeat CPU  0 instructions:  354000000 cycles:  295216089 heartbeat IPC: 0.86415 cumulative IPC: 1.03776 (Simulation time: 0 hr 11 min 52 sec) 
Heartbeat CPU  0 instructions:  355000003 cycles:  296328280 heartbeat IPC: 0.89913 cumulative IPC: 1.03713 (Simulation time: 0 hr 11 min 54 sec) 
Heartbeat CPU  0 instructions:  356000000 cycles:  297447660 heartbeat IPC: 0.89335 cumulative IPC: 1.03648 (Simulation time: 0 hr 11 min 57 sec) 
Heartbeat CPU  0 instructions:  357000000 cycles:  298570511 heartbeat IPC: 0.89059 cumulative IPC: 1.03582 (Simulation time: 0 hr 11 min 59 sec) 
Heartbeat CPU  0 instructions:  358000000 cycles:  299680591 heartbeat IPC: 0.90084 cumulative IPC: 1.03522 (Simulation time: 0 hr 12 min 1 sec) 
Heartbeat CPU  0 instructions:  359000000 cycles:  300791291 heartbeat IPC: 0.90033 cumulative IPC: 1.03462 (Simulation time: 0 hr 12 min 3 sec) 
Heartbeat CPU  0 instructions:  360000000 cycles:  301947294 heartbeat IPC: 0.86505 cumulative IPC: 1.03384 (Simulation time: 0 hr 12 min 5 sec) 
Heartbeat CPU  0 instructions:  361000000 cycles:  303058968 heartbeat IPC: 0.89954 cumulative IPC: 1.03325 (Simulation time: 0 hr 12 min 7 sec) 
Heartbeat CPU  0 instructions:  362000001 cycles:  304172282 heartbeat IPC: 0.89822 cumulative IPC: 1.03266 (Simulation time: 0 hr 12 min 9 sec) 
Heartbeat CPU  0 instructions:  363000003 cycles:  305308458 heartbeat IPC: 0.88015 cumulative IPC: 1.03198 (Simulation time: 0 hr 12 min 11 sec) 
Heartbeat CPU  0 instructions:  364000000 cycles:  306424108 heartbeat IPC: 0.89634 cumulative IPC: 1.03139 (Simulation time: 0 hr 12 min 13 sec) 
Heartbeat CPU  0 instructions:  365000000 cycles:  307538636 heartbeat IPC: 0.89724 cumulative IPC: 1.03080 (Simulation time: 0 hr 12 min 15 sec) 
Heartbeat CPU  0 instructions:  366000000 cycles:  308691868 heartbeat IPC: 0.86713 cumulative IPC: 1.03007 (Simulation time: 0 hr 12 min 18 sec) 
Heartbeat CPU  0 instructions:  367000001 cycles:  309812967 heartbeat IPC: 0.89198 cumulative IPC: 1.02948 (Simulation time: 0 hr 12 min 20 sec) 
Heartbeat CPU  0 instructions:  368000000 cycles:  310927870 heartbeat IPC: 0.89694 cumulative IPC: 1.02891 (Simulation time: 0 hr 12 min 22 sec) 
Heartbeat CPU  0 instructions:  369000000 cycles:  312051890 heartbeat IPC: 0.88966 cumulative IPC: 1.02831 (Simulation time: 0 hr 12 min 24 sec) 
Heartbeat CPU  0 instructions:  370000002 cycles:  313172475 heartbeat IPC: 0.89239 cumulative IPC: 1.02773 (Simulation time: 0 hr 12 min 26 sec) 
Heartbeat CPU  0 instructions:  371000002 cycles:  314289316 heartbeat IPC: 0.89538 cumulative IPC: 1.02717 (Simulation time: 0 hr 12 min 28 sec) 
Heartbeat CPU  0 instructions:  372000000 cycles:  315404548 heartbeat IPC: 0.89667 cumulative IPC: 1.02662 (Simulation time: 0 hr 12 min 30 sec) 
Heartbeat CPU  0 instructions:  373000002 cycles:  316562374 heartbeat IPC: 0.86369 cumulative IPC: 1.02591 (Simulation time: 0 hr 12 min 32 sec) 
Heartbeat CPU  0 instructions:  374000003 cycles:  317677409 heartbeat IPC: 0.89683 cumulative IPC: 1.02537 (Simulation time: 0 hr 12 min 34 sec) 
Heartbeat CPU  0 instructions:  375000003 cycles:  318796377 heartbeat IPC: 0.89368 cumulative IPC: 1.02482 (Simulation time: 0 hr 12 min 37 sec) 
Heartbeat CPU  0 instructions:  376000000 cycles:  319913199 heartbeat IPC: 0.89540 cumulative IPC: 1.02429 (Simulation time: 0 hr 12 min 39 sec) 
Heartbeat CPU  0 instructions:  377000003 cycles:  321033974 heartbeat IPC: 0.89224 cumulative IPC: 1.02374 (Simulation time: 0 hr 12 min 41 sec) 
Heartbeat CPU  0 instructions:  378000003 cycles:  322154167 heartbeat IPC: 0.89270 cumulative IPC: 1.02320 (Simulation time: 0 hr 12 min 43 sec) 
Heartbeat CPU  0 instructions:  379000003 cycles:  323302687 heartbeat IPC: 0.87069 cumulative IPC: 1.02256 (Simulation time: 0 hr 12 min 45 sec) 
Heartbeat CPU  0 instructions:  380000000 cycles:  324419991 heartbeat IPC: 0.89501 cumulative IPC: 1.02204 (Simulation time: 0 hr 12 min 47 sec) 
Heartbeat CPU  0 instructions:  381000002 cycles:  325540680 heartbeat IPC: 0.89231 cumulative IPC: 1.02151 (Simulation time: 0 hr 12 min 49 sec) 
Heartbeat CPU  0 instructions:  382000001 cycles:  326657218 heartbeat IPC: 0.89562 cumulative IPC: 1.02100 (Simulation time: 0 hr 12 min 51 sec) 
Heartbeat CPU  0 instructions:  383000000 cycles:  327783041 heartbeat IPC: 0.88824 cumulative IPC: 1.02046 (Simulation time: 0 hr 12 min 54 sec) 
Heartbeat CPU  0 instructions:  384000000 cycles:  328898282 heartbeat IPC: 0.89667 cumulative IPC: 1.01997 (Simulation time: 0 hr 12 min 56 sec) 
Heartbeat CPU  0 instructions:  385000000 cycles:  330016249 heartbeat IPC: 0.89448 cumulative IPC: 1.01946 (Simulation time: 0 hr 12 min 58 sec) 
Heartbeat CPU  0 instructions:  386000001 cycles:  331176715 heartbeat IPC: 0.86172 cumulative IPC: 1.01881 (Simulation time: 0 hr 13 min 0 sec) 
Heartbeat CPU  0 instructions:  387000003 cycles:  332294148 heartbeat IPC: 0.89491 cumulative IPC: 1.01832 (Simulation time: 0 hr 13 min 2 sec) 
Heartbeat CPU  0 instructions:  388000000 cycles:  333405984 heartbeat IPC: 0.89941 cumulative IPC: 1.01785 (Simulation time: 0 hr 13 min 4 sec) 
Heartbeat CPU  0 instructions:  389000001 cycles:  334532141 heartbeat IPC: 0.88798 cumulative IPC: 1.01734 (Simulation time: 0 hr 13 min 6 sec) 
Heartbeat CPU  0 instructions:  390000000 cycles:  335647396 heartbeat IPC: 0.89666 cumulative IPC: 1.01687 (Simulation time: 0 hr 13 min 8 sec) 
Heartbeat CPU  0 instructions:  391000000 cycles:  336761765 heartbeat IPC: 0.89737 cumulative IPC: 1.01640 (Simulation time: 0 hr 13 min 10 sec) 
Heartbeat CPU  0 instructions:  392000000 cycles:  338019566 heartbeat IPC: 0.79504 cumulative IPC: 1.01543 (Simulation time: 0 hr 13 min 13 sec) 
Heartbeat CPU  0 instructions:  393000002 cycles:  340011419 heartbeat IPC: 0.50205 cumulative IPC: 1.01190 (Simulation time: 0 hr 13 min 16 sec) 
Heartbeat CPU  0 instructions:  394000001 cycles:  343337287 heartbeat IPC: 0.30067 cumulative IPC: 1.00383 (Simulation time: 0 hr 13 min 19 sec) 
Heartbeat CPU  0 instructions:  395000000 cycles:  345464048 heartbeat IPC: 0.47020 cumulative IPC: 0.99998 (Simulation time: 0 hr 13 min 22 sec) 
Heartbeat CPU  0 instructions:  396000000 cycles:  346493028 heartbeat IPC: 0.97184 cumulative IPC: 0.99988 (Simulation time: 0 hr 13 min 24 sec) 
Heartbeat CPU  0 instructions:  397000000 cycles:  347273041 heartbeat IPC: 1.28203 cumulative IPC: 1.00062 (Simulation time: 0 hr 13 min 26 sec) 
Heartbeat CPU  0 instructions:  398000001 cycles:  348057605 heartbeat IPC: 1.27459 cumulative IPC: 1.00134 (Simulation time: 0 hr 13 min 28 sec) 
Heartbeat CPU  0 instructions:  399000002 cycles:  348853530 heartbeat IPC: 1.25640 cumulative IPC: 1.00203 (Simulation time: 0 hr 13 min 30 sec) 
Heartbeat CPU  0 instructions:  400000000 cycles:  349638006 heartbeat IPC: 1.27473 cumulative IPC: 1.00274 (Simulation time: 0 hr 13 min 33 sec) 
Heartbeat CPU  0 instructions:  401000003 cycles:  350425930 heartbeat IPC: 1.26916 cumulative IPC: 1.00344 (Simulation time: 0 hr 13 min 35 sec) 
Heartbeat CPU  0 instructions:  402000002 cycles:  351497077 heartbeat IPC: 0.93358 cumulative IPC: 1.00319 (Simulation time: 0 hr 13 min 37 sec) 
Heartbeat CPU  0 instructions:  403000002 cycles:  352416262 heartbeat IPC: 1.08792 cumulative IPC: 1.00345 (Simulation time: 0 hr 13 min 39 sec) 
Heartbeat CPU  0 instructions:  404000000 cycles:  353237071 heartbeat IPC: 1.21831 cumulative IPC: 1.00403 (Simulation time: 0 hr 13 min 41 sec) 
Heartbeat CPU  0 instructions:  405000000 cycles:  354057905 heartbeat IPC: 1.21827 cumulative IPC: 1.00461 (Simulation time: 0 hr 13 min 43 sec) 
Heartbeat CPU  0 instructions:  406000000 cycles:  354875560 heartbeat IPC: 1.22301 cumulative IPC: 1.00520 (Simulation time: 0 hr 13 min 45 sec) 
Heartbeat CPU  0 instructions:  407000000 cycles:  355691835 heartbeat IPC: 1.22508 cumulative IPC: 1.00579 (Simulation time: 0 hr 13 min 47 sec) 
Heartbeat CPU  0 instructions:  408000000 cycles:  356782510 heartbeat IPC: 0.91686 cumulative IPC: 1.00547 (Simulation time: 0 hr 13 min 50 sec) 
Heartbeat CPU  0 instructions:  409000001 cycles:  357943459 heartbeat IPC: 0.86137 cumulative IPC: 1.00493 (Simulation time: 0 hr 13 min 52 sec) 
Heartbeat CPU  0 instructions:  410000003 cycles:  358965623 heartbeat IPC: 0.97832 cumulative IPC: 1.00484 (Simulation time: 0 hr 13 min 54 sec) 
Heartbeat CPU  0 instructions:  411000002 cycles:  360094444 heartbeat IPC: 0.88588 cumulative IPC: 1.00440 (Simulation time: 0 hr 13 min 56 sec) 
Heartbeat CPU  0 instructions:  412000000 cycles:  361229170 heartbeat IPC: 0.88127 cumulative IPC: 1.00395 (Simulation time: 0 hr 13 min 58 sec) 
Heartbeat CPU  0 instructions:  413000003 cycles:  362089152 heartbeat IPC: 1.16282 cumulative IPC: 1.00439 (Simulation time: 0 hr 14 min 0 sec) 
Heartbeat CPU  0 instructions:  414000002 cycles:  362904126 heartbeat IPC: 1.22703 cumulative IPC: 1.00497 (Simulation time: 0 hr 14 min 2 sec) 
Heartbeat CPU  0 instructions:  415000002 cycles:  363723278 heartbeat IPC: 1.22077 cumulative IPC: 1.00554 (Simulation time: 0 hr 14 min 4 sec) 
Heartbeat CPU  0 instructions:  416000000 cycles:  364536398 heartbeat IPC: 1.22983 cumulative IPC: 1.00612 (Simulation time: 0 hr 14 min 6 sec) 
Heartbeat CPU  0 instructions:  417000000 cycles:  365362121 heartbeat IPC: 1.21106 cumulative IPC: 1.00666 (Simulation time: 0 hr 14 min 8 sec) 
Heartbeat CPU  0 instructions:  418000001 cycles:  366183151 heartbeat IPC: 1.21798 cumulative IPC: 1.00720 (Simulation time: 0 hr 14 min 10 sec) 
Heartbeat CPU  0 instructions:  419000003 cycles:  367002271 heartbeat IPC: 1.22082 cumulative IPC: 1.00776 (Simulation time: 0 hr 14 min 12 sec) 
Heartbeat CPU  0 instructions:  420000000 cycles:  367821060 heartbeat IPC: 1.22131 cumulative IPC: 1.00831 (Simulation time: 0 hr 14 min 14 sec) 
Heartbeat CPU  0 instructions:  421000001 cycles:  368640816 heartbeat IPC: 1.21988 cumulative IPC: 1.00885 (Simulation time: 0 hr 14 min 16 sec) 
Heartbeat CPU  0 instructions:  422000000 cycles:  369468772 heartbeat IPC: 1.20779 cumulative IPC: 1.00937 (Simulation time: 0 hr 14 min 18 sec) 
Heartbeat CPU  0 instructions:  423000002 cycles:  370287376 heartbeat IPC: 1.22159 cumulative IPC: 1.00991 (Simulation time: 0 hr 14 min 20 sec) 
Heartbeat CPU  0 instructions:  424000000 cycles:  371109307 heartbeat IPC: 1.21664 cumulative IPC: 1.01044 (Simulation time: 0 hr 14 min 22 sec) 
Heartbeat CPU  0 instructions:  425000000 cycles:  371946000 heartbeat IPC: 1.19518 cumulative IPC: 1.01092 (Simulation time: 0 hr 14 min 24 sec) 
Heartbeat CPU  0 instructions:  426000003 cycles:  372781270 heartbeat IPC: 1.19722 cumulative IPC: 1.01141 (Simulation time: 0 hr 14 min 26 sec) 
Heartbeat CPU  0 instructions:  427000003 cycles:  373603492 heartbeat IPC: 1.21622 cumulative IPC: 1.01193 (Simulation time: 0 hr 14 min 28 sec) 
Heartbeat CPU  0 instructions:  428000000 cycles:  374427626 heartbeat IPC: 1.21339 cumulative IPC: 1.01244 (Simulation time: 0 hr 14 min 30 sec) 
Heartbeat CPU  0 instructions:  429000002 cycles:  375253128 heartbeat IPC: 1.21139 cumulative IPC: 1.01295 (Simulation time: 0 hr 14 min 32 sec) 
Heartbeat CPU  0 instructions:  430000002 cycles:  376076671 heartbeat IPC: 1.21427 cumulative IPC: 1.01345 (Simulation time: 0 hr 14 min 34 sec) 
Heartbeat CPU  0 instructions:  431000003 cycles:  376899591 heartbeat IPC: 1.21519 cumulative IPC: 1.01396 (Simulation time: 0 hr 14 min 36 sec) 
Heartbeat CPU  0 instructions:  432000000 cycles:  377718796 heartbeat IPC: 1.22069 cumulative IPC: 1.01448 (Simulation time: 0 hr 14 min 38 sec) 
Heartbeat CPU  0 instructions:  433000001 cycles:  378545479 heartbeat IPC: 1.20965 cumulative IPC: 1.01497 (Simulation time: 0 hr 14 min 40 sec) 
Heartbeat CPU  0 instructions:  434000001 cycles:  379367300 heartbeat IPC: 1.21681 cumulative IPC: 1.01548 (Simulation time: 0 hr 14 min 42 sec) 
Heartbeat CPU  0 instructions:  435000003 cycles:  380189615 heartbeat IPC: 1.21608 cumulative IPC: 1.01598 (Simulation time: 0 hr 14 min 44 sec) 
Heartbeat CPU  0 instructions:  436000000 cycles:  381011503 heartbeat IPC: 1.21671 cumulative IPC: 1.01648 (Simulation time: 0 hr 14 min 46 sec) 
Heartbeat CPU  0 instructions:  437000002 cycles:  381835913 heartbeat IPC: 1.21299 cumulative IPC: 1.01697 (Simulation time: 0 hr 14 min 48 sec) 
Heartbeat CPU  0 instructions:  438000000 cycles:  382659656 heartbeat IPC: 1.21397 cumulative IPC: 1.01745 (Simulation time: 0 hr 14 min 50 sec) 
Heartbeat CPU  0 instructions:  439000003 cycles:  383480107 heartbeat IPC: 1.21885 cumulative IPC: 1.01795 (Simulation time: 0 hr 14 min 52 sec) 
Heartbeat CPU  0 instructions:  440000000 cycles:  384325860 heartbeat IPC: 1.18237 cumulative IPC: 1.01837 (Simulation time: 0 hr 14 min 54 sec) 
Heartbeat CPU  0 instructions:  441000000 cycles:  385149438 heartbeat IPC: 1.21421 cumulative IPC: 1.01885 (Simulation time: 0 hr 14 min 56 sec) 
Heartbeat CPU  0 instructions:  442000003 cycles:  385970036 heartbeat IPC: 1.21863 cumulative IPC: 1.01934 (Simulation time: 0 hr 14 min 58 sec) 
Heartbeat CPU  0 instructions:  443000002 cycles:  386791126 heartbeat IPC: 1.21789 cumulative IPC: 1.01982 (Simulation time: 0 hr 15 min 0 sec) 
Heartbeat CPU  0 instructions:  444000000 cycles:  387614593 heartbeat IPC: 1.21438 cumulative IPC: 1.02030 (Simulation time: 0 hr 15 min 2 sec) 
Heartbeat CPU  0 instructions:  445000003 cycles:  388433850 heartbeat IPC: 1.22062 cumulative IPC: 1.02078 (Simulation time: 0 hr 15 min 4 sec) 
Heartbeat CPU  0 instructions:  446000002 cycles:  389254770 heartbeat IPC: 1.21814 cumulative IPC: 1.02126 (Simulation time: 0 hr 15 min 6 sec) 
Heartbeat CPU  0 instructions:  447000000 cycles:  390076387 heartbeat IPC: 1.21711 cumulative IPC: 1.02173 (Simulation time: 0 hr 15 min 8 sec) 
Heartbeat CPU  0 instructions:  448000000 cycles:  390897232 heartbeat IPC: 1.21826 cumulative IPC: 1.02221 (Simulation time: 0 hr 15 min 10 sec) 
Heartbeat CPU  0 instructions:  449000003 cycles:  391717898 heartbeat IPC: 1.21853 cumulative IPC: 1.02268 (Simulation time: 0 hr 15 min 12 sec) 
Heartbeat CPU  0 instructions:  450000001 cycles:  392538099 heartbeat IPC: 1.21921 cumulative IPC: 1.02315 (Simulation time: 0 hr 15 min 14 sec) 
Heartbeat CPU  0 instructions:  451000003 cycles:  393359534 heartbeat IPC: 1.21738 cumulative IPC: 1.02362 (Simulation time: 0 hr 15 min 16 sec) 
Heartbeat CPU  0 instructions:  452000000 cycles:  394178383 heartbeat IPC: 1.22122 cumulative IPC: 1.02409 (Simulation time: 0 hr 15 min 18 sec) 
Heartbeat CPU  0 instructions:  453000000 cycles:  394997932 heartbeat IPC: 1.22018 cumulative IPC: 1.02455 (Simulation time: 0 hr 15 min 20 sec) 
Heartbeat CPU  0 instructions:  454000000 cycles:  395830298 heartbeat IPC: 1.20139 cumulative IPC: 1.02498 (Simulation time: 0 hr 15 min 22 sec) 
Heartbeat CPU  0 instructions:  455000002 cycles:  396649550 heartbeat IPC: 1.22063 cumulative IPC: 1.02544 (Simulation time: 0 hr 15 min 24 sec) 
Heartbeat CPU  0 instructions:  456000000 cycles:  397468712 heartbeat IPC: 1.22076 cumulative IPC: 1.02590 (Simulation time: 0 hr 15 min 26 sec) 
Heartbeat CPU  0 instructions:  457000000 cycles:  398290212 heartbeat IPC: 1.21729 cumulative IPC: 1.02636 (Simulation time: 0 hr 15 min 28 sec) 
Heartbeat CPU  0 instructions:  458000002 cycles:  399108467 heartbeat IPC: 1.22212 cumulative IPC: 1.02682 (Simulation time: 0 hr 15 min 30 sec) 
Heartbeat CPU  0 instructions:  459000001 cycles:  399929008 heartbeat IPC: 1.21871 cumulative IPC: 1.02727 (Simulation time: 0 hr 15 min 32 sec) 
Heartbeat CPU  0 instructions:  460000000 cycles:  400746874 heartbeat IPC: 1.22269 cumulative IPC: 1.02772 (Simulation time: 0 hr 15 min 33 sec) 
Heartbeat CPU  0 instructions:  461000003 cycles:  401565353 heartbeat IPC: 1.22178 cumulative IPC: 1.02818 (Simulation time: 0 hr 15 min 35 sec) 
Heartbeat CPU  0 instructions:  462000002 cycles:  402385615 heartbeat IPC: 1.21912 cumulative IPC: 1.02862 (Simulation time: 0 hr 15 min 37 sec) 
Heartbeat CPU  0 instructions:  463000002 cycles:  403205410 heartbeat IPC: 1.21982 cumulative IPC: 1.02906 (Simulation time: 0 hr 15 min 39 sec) 
Heartbeat CPU  0 instructions:  464000000 cycles:  404024590 heartbeat IPC: 1.22073 cumulative IPC: 1.02951 (Simulation time: 0 hr 15 min 41 sec) 
Heartbeat CPU  0 instructions:  465000001 cycles:  404844544 heartbeat IPC: 1.21958 cumulative IPC: 1.02995 (Simulation time: 0 hr 15 min 43 sec) 
Heartbeat CPU  0 instructions:  466000001 cycles:  405667566 heartbeat IPC: 1.21503 cumulative IPC: 1.03038 (Simulation time: 0 hr 15 min 45 sec) 
Heartbeat CPU  0 instructions:  467000001 cycles:  406486474 heartbeat IPC: 1.22114 cumulative IPC: 1.03082 (Simulation time: 0 hr 15 min 47 sec) 
Heartbeat CPU  0 instructions:  468000000 cycles:  407325373 heartbeat IPC: 1.19204 cumulative IPC: 1.03120 (Simulation time: 0 hr 15 min 49 sec) 
Heartbeat CPU  0 instructions:  469000000 cycles:  408144072 heartbeat IPC: 1.22145 cumulative IPC: 1.03163 (Simulation time: 0 hr 15 min 51 sec) 
Heartbeat CPU  0 instructions:  470000003 cycles:  408963028 heartbeat IPC: 1.22107 cumulative IPC: 1.03206 (Simulation time: 0 hr 15 min 53 sec) 
Heartbeat CPU  0 instructions:  471000002 cycles:  409781295 heartbeat IPC: 1.22209 cumulative IPC: 1.03250 (Simulation time: 0 hr 15 min 55 sec) 
Heartbeat CPU  0 instructions:  472000000 cycles:  410601298 heartbeat IPC: 1.21951 cumulative IPC: 1.03292 (Simulation time: 0 hr 15 min 57 sec) 
Heartbeat CPU  0 instructions:  473000001 cycles:  411421414 heartbeat IPC: 1.21934 cumulative IPC: 1.03335 (Simulation time: 0 hr 15 min 59 sec) 
Heartbeat CPU  0 instructions:  474000002 cycles:  412239282 heartbeat IPC: 1.22269 cumulative IPC: 1.03377 (Simulation time: 0 hr 16 min 1 sec) 
Heartbeat CPU  0 instructions:  475000003 cycles:  413059064 heartbeat IPC: 1.21984 cumulative IPC: 1.03419 (Simulation time: 0 hr 16 min 3 sec) 
Heartbeat CPU  0 instructions:  476000000 cycles:  413877237 heartbeat IPC: 1.22223 cumulative IPC: 1.03462 (Simulation time: 0 hr 16 min 5 sec) 
Heartbeat CPU  0 instructions:  477000002 cycles:  414696545 heartbeat IPC: 1.22054 cumulative IPC: 1.03504 (Simulation time: 0 hr 16 min 7 sec) 
Heartbeat CPU  0 instructions:  478000002 cycles:  415516771 heartbeat IPC: 1.21918 cumulative IPC: 1.03545 (Simulation time: 0 hr 16 min 9 sec) 
Heartbeat CPU  0 instructions:  479000002 cycles:  416336636 heartbeat IPC: 1.21971 cumulative IPC: 1.03586 (Simulation time: 0 hr 16 min 11 sec) 
Heartbeat CPU  0 instructions:  480000000 cycles:  417155902 heartbeat IPC: 1.22060 cumulative IPC: 1.03627 (Simulation time: 0 hr 16 min 13 sec) 
Heartbeat CPU  0 instructions:  481000001 cycles:  417974837 heartbeat IPC: 1.22110 cumulative IPC: 1.03669 (Simulation time: 0 hr 16 min 15 sec) 
Heartbeat CPU  0 instructions:  482000000 cycles:  419694130 heartbeat IPC: 0.58163 cumulative IPC: 1.03457 (Simulation time: 0 hr 16 min 18 sec) 
Heartbeat CPU  0 instructions:  483000003 cycles:  420588853 heartbeat IPC: 1.11767 cumulative IPC: 1.03477 (Simulation time: 0 hr 16 min 20 sec) 
Heartbeat CPU  0 instructions:  484000000 cycles:  421484827 heartbeat IPC: 1.11610 cumulative IPC: 1.03497 (Simulation time: 0 hr 16 min 22 sec) 
Heartbeat CPU  0 instructions:  485000003 cycles:  422381748 heartbeat IPC: 1.11493 cumulative IPC: 1.03516 (Simulation time: 0 hr 16 min 24 sec) 
Heartbeat CPU  0 instructions:  486000002 cycles:  423275901 heartbeat IPC: 1.11838 cumulative IPC: 1.03536 (Simulation time: 0 hr 16 min 25 sec) 
Heartbeat CPU  0 instructions:  487000001 cycles:  424163025 heartbeat IPC: 1.12724 cumulative IPC: 1.03558 (Simulation time: 0 hr 16 min 27 sec) 
Heartbeat CPU  0 instructions:  488000000 cycles:  425050671 heartbeat IPC: 1.12657 cumulative IPC: 1.03579 (Simulation time: 0 hr 16 min 29 sec) 
Heartbeat CPU  0 instructions:  489000001 cycles:  425932739 heartbeat IPC: 1.13370 cumulative IPC: 1.03602 (Simulation time: 0 hr 16 min 31 sec) 
Heartbeat CPU  0 instructions:  490000001 cycles:  426870540 heartbeat IPC: 1.06632 cumulative IPC: 1.03610 (Simulation time: 0 hr 16 min 33 sec) 
Heartbeat CPU  0 instructions:  491000000 cycles:  428433874 heartbeat IPC: 0.63966 cumulative IPC: 1.03446 (Simulation time: 0 hr 16 min 36 sec) 
Heartbeat CPU  0 instructions:  492000000 cycles:  429300335 heartbeat IPC: 1.15412 cumulative IPC: 1.03473 (Simulation time: 0 hr 16 min 38 sec) 
Heartbeat CPU  0 instructions:  493000002 cycles:  430160320 heartbeat IPC: 1.16281 cumulative IPC: 1.03502 (Simulation time: 0 hr 16 min 39 sec) 
Heartbeat CPU  0 instructions:  494000001 cycles:  431039067 heartbeat IPC: 1.13798 cumulative IPC: 1.03526 (Simulation time: 0 hr 16 min 41 sec) 
Heartbeat CPU  0 instructions:  495000001 cycles:  431906015 heartbeat IPC: 1.15347 cumulative IPC: 1.03553 (Simulation time: 0 hr 16 min 43 sec) 
Heartbeat CPU  0 instructions:  496000000 cycles:  432768064 heartbeat IPC: 1.16003 cumulative IPC: 1.03581 (Simulation time: 0 hr 16 min 45 sec) 
Heartbeat CPU  0 instructions:  497000000 cycles:  433628572 heartbeat IPC: 1.16210 cumulative IPC: 1.03609 (Simulation time: 0 hr 16 min 47 sec) 
Heartbeat CPU  0 instructions:  498000001 cycles:  434491383 heartbeat IPC: 1.15900 cumulative IPC: 1.03637 (Simulation time: 0 hr 16 min 49 sec) 
Heartbeat CPU  0 instructions:  499000000 cycles:  435686883 heartbeat IPC: 0.83647 cumulative IPC: 1.03575 (Simulation time: 0 hr 16 min 51 sec) 
Heartbeat CPU  0 instructions:  500000000 cycles:  436951035 heartbeat IPC: 0.79104 cumulative IPC: 1.03495 (Simulation time: 0 hr 16 min 54 sec) 
Heartbeat CPU  0 instructions:  501000002 cycles:  437863158 heartbeat IPC: 1.09635 cumulative IPC: 1.03509 (Simulation time: 0 hr 16 min 56 sec) 
Heartbeat CPU  0 instructions:  502000003 cycles:  438746947 heartbeat IPC: 1.13149 cumulative IPC: 1.03531 (Simulation time: 0 hr 16 min 57 sec) 
Heartbeat CPU  0 instructions:  503000003 cycles:  439648484 heartbeat IPC: 1.10922 cumulative IPC: 1.03548 (Simulation time: 0 hr 16 min 59 sec) 
Heartbeat CPU  0 instructions:  504000000 cycles:  440570599 heartbeat IPC: 1.08446 cumulative IPC: 1.03560 (Simulation time: 0 hr 17 min 1 sec) 
Heartbeat CPU  0 instructions:  505000003 cycles:  441475281 heartbeat IPC: 1.10536 cumulative IPC: 1.03576 (Simulation time: 0 hr 17 min 3 sec) 
Heartbeat CPU  0 instructions:  506000002 cycles:  442377092 heartbeat IPC: 1.10888 cumulative IPC: 1.03593 (Simulation time: 0 hr 17 min 5 sec) 
Heartbeat CPU  0 instructions:  507000000 cycles:  443270755 heartbeat IPC: 1.11899 cumulative IPC: 1.03612 (Simulation time: 0 hr 17 min 7 sec) 
Heartbeat CPU  0 instructions:  508000000 cycles:  444737053 heartbeat IPC: 0.68199 cumulative IPC: 1.03480 (Simulation time: 0 hr 17 min 10 sec) 
Heartbeat CPU  0 instructions:  509000002 cycles:  445967364 heartbeat IPC: 0.81280 cumulative IPC: 1.03411 (Simulation time: 0 hr 17 min 12 sec) 
Heartbeat CPU  0 instructions:  510000002 cycles:  447122974 heartbeat IPC: 0.86534 cumulative IPC: 1.03362 (Simulation time: 0 hr 17 min 15 sec) 
Heartbeat CPU  0 instructions:  511000003 cycles:  448243560 heartbeat IPC: 0.89239 cumulative IPC: 1.03322 (Simulation time: 0 hr 17 min 17 sec) 
Heartbeat CPU  0 instructions:  512000000 cycles:  449376244 heartbeat IPC: 0.88286 cumulative IPC: 1.03279 (Simulation time: 0 hr 17 min 19 sec) 
Heartbeat CPU  0 instructions:  513000003 cycles:  450508550 heartbeat IPC: 0.88316 cumulative IPC: 1.03237 (Simulation time: 0 hr 17 min 22 sec) 
Heartbeat CPU  0 instructions:  514000003 cycles:  451677634 heartbeat IPC: 0.85537 cumulative IPC: 1.03185 (Simulation time: 0 hr 17 min 24 sec) 
Heartbeat CPU  0 instructions:  515000000 cycles:  452800137 heartbeat IPC: 0.89086 cumulative IPC: 1.03146 (Simulation time: 0 hr 17 min 27 sec) 
Heartbeat CPU  0 instructions:  516000000 cycles:  453937757 heartbeat IPC: 0.87903 cumulative IPC: 1.03103 (Simulation time: 0 hr 17 min 29 sec) 
Heartbeat CPU  0 instructions:  517000001 cycles:  455056944 heartbeat IPC: 0.89351 cumulative IPC: 1.03065 (Simulation time: 0 hr 17 min 31 sec) 
Heartbeat CPU  0 instructions:  518000001 cycles:  456194109 heartbeat IPC: 0.87938 cumulative IPC: 1.03023 (Simulation time: 0 hr 17 min 34 sec) 
Heartbeat CPU  0 instructions:  519000000 cycles:  457347120 heartbeat IPC: 0.86729 cumulative IPC: 1.02976 (Simulation time: 0 hr 17 min 36 sec) 
Heartbeat CPU  0 instructions:  520000000 cycles:  458464582 heartbeat IPC: 0.89489 cumulative IPC: 1.02939 (Simulation time: 0 hr 17 min 39 sec) 
Heartbeat CPU  0 instructions:  521000003 cycles:  459593617 heartbeat IPC: 0.88571 cumulative IPC: 1.02900 (Simulation time: 0 hr 17 min 41 sec) 
Heartbeat CPU  0 instructions:  522000002 cycles:  460696175 heartbeat IPC: 0.90698 cumulative IPC: 1.02867 (Simulation time: 0 hr 17 min 43 sec) 
Heartbeat CPU  0 instructions:  523000001 cycles:  461850316 heartbeat IPC: 0.86644 cumulative IPC: 1.02822 (Simulation time: 0 hr 17 min 46 sec) 
Heartbeat CPU  0 instructions:  524000000 cycles:  462948608 heartbeat IPC: 0.91050 cumulative IPC: 1.02790 (Simulation time: 0 hr 17 min 48 sec) 
Heartbeat CPU  0 instructions:  525000000 cycles:  464071016 heartbeat IPC: 0.89094 cumulative IPC: 1.02753 (Simulation time: 0 hr 17 min 51 sec) 
Heartbeat CPU  0 instructions:  526000001 cycles:  465178465 heartbeat IPC: 0.90298 cumulative IPC: 1.02720 (Simulation time: 0 hr 17 min 53 sec) 
Heartbeat CPU  0 instructions:  527000001 cycles:  466328769 heartbeat IPC: 0.86934 cumulative IPC: 1.02676 (Simulation time: 0 hr 17 min 55 sec) 
Heartbeat CPU  0 instructions:  528000000 cycles:  467455135 heartbeat IPC: 0.88781 cumulative IPC: 1.02639 (Simulation time: 0 hr 17 min 58 sec) 
Heartbeat CPU  0 instructions:  529000002 cycles:  468579877 heartbeat IPC: 0.88909 cumulative IPC: 1.02602 (Simulation time: 0 hr 18 min 0 sec) 
Heartbeat CPU  0 instructions:  530000003 cycles:  469711257 heartbeat IPC: 0.88388 cumulative IPC: 1.02563 (Simulation time: 0 hr 18 min 3 sec) 
Heartbeat CPU  0 instructions:  531000002 cycles:  470850400 heartbeat IPC: 0.87785 cumulative IPC: 1.02523 (Simulation time: 0 hr 18 min 5 sec) 
Heartbeat CPU  0 instructions:  532000000 cycles:  471980212 heartbeat IPC: 0.88510 cumulative IPC: 1.02486 (Simulation time: 0 hr 18 min 7 sec) 
Heartbeat CPU  0 instructions:  533000000 cycles:  473103120 heartbeat IPC: 0.89054 cumulative IPC: 1.02450 (Simulation time: 0 hr 18 min 10 sec) 
Heartbeat CPU  0 instructions:  534000000 cycles:  474226729 heartbeat IPC: 0.88999 cumulative IPC: 1.02414 (Simulation time: 0 hr 18 min 12 sec) 
Heartbeat CPU  0 instructions:  535000000 cycles:  475348008 heartbeat IPC: 0.89184 cumulative IPC: 1.02379 (Simulation time: 0 hr 18 min 15 sec) 
Heartbeat CPU  0 instructions:  536000000 cycles:  476485208 heartbeat IPC: 0.87935 cumulative IPC: 1.02341 (Simulation time: 0 hr 18 min 17 sec) 
Heartbeat CPU  0 instructions:  537000001 cycles:  477615801 heartbeat IPC: 0.88449 cumulative IPC: 1.02304 (Simulation time: 0 hr 18 min 19 sec) 
Heartbeat CPU  0 instructions:  538000002 cycles:  478747161 heartbeat IPC: 0.88389 cumulative IPC: 1.02267 (Simulation time: 0 hr 18 min 22 sec) 
Heartbeat CPU  0 instructions:  539000000 cycles:  479881787 heartbeat IPC: 0.88135 cumulative IPC: 1.02230 (Simulation time: 0 hr 18 min 24 sec) 
Heartbeat CPU  0 instructions:  540000000 cycles:  481029672 heartbeat IPC: 0.87117 cumulative IPC: 1.02190 (Simulation time: 0 hr 18 min 27 sec) 
Heartbeat CPU  0 instructions:  541000003 cycles:  482160938 heartbeat IPC: 0.88397 cumulative IPC: 1.02154 (Simulation time: 0 hr 18 min 29 sec) 
Heartbeat CPU  0 instructions:  542000000 cycles:  483292878 heartbeat IPC: 0.88344 cumulative IPC: 1.02117 (Simulation time: 0 hr 18 min 31 sec) 
Heartbeat CPU  0 instructions:  543000001 cycles:  484414924 heartbeat IPC: 0.89123 cumulative IPC: 1.02084 (Simulation time: 0 hr 18 min 34 sec) 
Heartbeat CPU  0 instructions:  544000000 cycles:  485554805 heartbeat IPC: 0.87728 cumulative IPC: 1.02046 (Simulation time: 0 hr 18 min 36 sec) 
Heartbeat CPU  0 instructions:  545000000 cycles:  486670917 heartbeat IPC: 0.89597 cumulative IPC: 1.02014 (Simulation time: 0 hr 18 min 38 sec) 
Heartbeat CPU  0 instructions:  546000001 cycles:  488002719 heartbeat IPC: 0.75086 cumulative IPC: 1.01932 (Simulation time: 0 hr 18 min 41 sec) 
Heartbeat CPU  0 instructions:  547000001 cycles:  489128834 heartbeat IPC: 0.88801 cumulative IPC: 1.01899 (Simulation time: 0 hr 18 min 43 sec) 
Heartbeat CPU  0 instructions:  548000000 cycles:  490001032 heartbeat IPC: 1.14653 cumulative IPC: 1.01924 (Simulation time: 0 hr 18 min 45 sec) 
Heartbeat CPU  0 instructions:  549000000 cycles:  490864109 heartbeat IPC: 1.15865 cumulative IPC: 1.01951 (Simulation time: 0 hr 18 min 47 sec) 
Heartbeat CPU  0 instructions:  550000002 cycles:  491742817 heartbeat IPC: 1.13804 cumulative IPC: 1.01975 (Simulation time: 0 hr 18 min 49 sec) 
Heartbeat CPU  0 instructions:  551000001 cycles:  492615023 heartbeat IPC: 1.14652 cumulative IPC: 1.02000 (Simulation time: 0 hr 18 min 51 sec) 
Heartbeat CPU  0 instructions:  552000000 cycles:  493476965 heartbeat IPC: 1.16017 cumulative IPC: 1.02027 (Simulation time: 0 hr 18 min 53 sec) 
Heartbeat CPU  0 instructions:  553000003 cycles:  494345771 heartbeat IPC: 1.15101 cumulative IPC: 1.02053 (Simulation time: 0 hr 18 min 55 sec) 
Heartbeat CPU  0 instructions:  554000001 cycles:  495217542 heartbeat IPC: 1.14709 cumulative IPC: 1.02078 (Simulation time: 0 hr 18 min 58 sec) 
Heartbeat CPU  0 instructions:  555000001 cycles:  496085129 heartbeat IPC: 1.15262 cumulative IPC: 1.02103 (Simulation time: 0 hr 19 min 0 sec) 
Heartbeat CPU  0 instructions:  556000000 cycles:  496959470 heartbeat IPC: 1.14372 cumulative IPC: 1.02127 (Simulation time: 0 hr 19 min 2 sec) 
Heartbeat CPU  0 instructions:  557000002 cycles:  497829869 heartbeat IPC: 1.14890 cumulative IPC: 1.02152 (Simulation time: 0 hr 19 min 4 sec) 
Heartbeat CPU  0 instructions:  558000003 cycles:  498689101 heartbeat IPC: 1.16383 cumulative IPC: 1.02179 (Simulation time: 0 hr 19 min 6 sec) 
Heartbeat CPU  0 instructions:  559000002 cycles:  499546740 heartbeat IPC: 1.16599 cumulative IPC: 1.02207 (Simulation time: 0 hr 19 min 8 sec) 
Heartbeat CPU  0 instructions:  560000000 cycles:  500396100 heartbeat IPC: 1.17735 cumulative IPC: 1.02236 (Simulation time: 0 hr 19 min 10 sec) 
Heartbeat CPU  0 instructions:  561000002 cycles:  501248265 heartbeat IPC: 1.17348 cumulative IPC: 1.02265 (Simulation time: 0 hr 19 min 12 sec) 
Heartbeat CPU  0 instructions:  562000002 cycles:  502100526 heartbeat IPC: 1.17335 cumulative IPC: 1.02293 (Simulation time: 0 hr 19 min 14 sec) 
Heartbeat CPU  0 instructions:  563000001 cycles:  502960226 heartbeat IPC: 1.16320 cumulative IPC: 1.02320 (Simulation time: 0 hr 19 min 16 sec) 
Heartbeat CPU  0 instructions:  564000000 cycles:  503830009 heartbeat IPC: 1.14971 cumulative IPC: 1.02344 (Simulation time: 0 hr 19 min 18 sec) 
Heartbeat CPU  0 instructions:  565000003 cycles:  504703227 heartbeat IPC: 1.14519 cumulative IPC: 1.02368 (Simulation time: 0 hr 19 min 20 sec) 
Heartbeat CPU  0 instructions:  566000002 cycles:  505558913 heartbeat IPC: 1.16865 cumulative IPC: 1.02395 (Simulation time: 0 hr 19 min 22 sec) 
Heartbeat CPU  0 instructions:  567000001 cycles:  506460431 heartbeat IPC: 1.10924 cumulative IPC: 1.02412 (Simulation time: 0 hr 19 min 24 sec) 
Heartbeat CPU  0 instructions:  568000000 cycles:  507309263 heartbeat IPC: 1.17809 cumulative IPC: 1.02440 (Simulation time: 0 hr 19 min 26 sec) 
Heartbeat CPU  0 instructions:  569000001 cycles:  508164368 heartbeat IPC: 1.16945 cumulative IPC: 1.02467 (Simulation time: 0 hr 19 min 28 sec) 
Heartbeat CPU  0 instructions:  570000001 cycles:  509026460 heartbeat IPC: 1.15997 cumulative IPC: 1.02493 (Simulation time: 0 hr 19 min 31 sec) 
Heartbeat CPU  0 instructions:  571000003 cycles:  509888963 heartbeat IPC: 1.15942 cumulative IPC: 1.02518 (Simulation time: 0 hr 19 min 33 sec) 
Heartbeat CPU  0 instructions:  572000000 cycles:  510732375 heartbeat IPC: 1.18566 cumulative IPC: 1.02548 (Simulation time: 0 hr 19 min 35 sec) 
Heartbeat CPU  0 instructions:  573000001 cycles:  511591753 heartbeat IPC: 1.16363 cumulative IPC: 1.02573 (Simulation time: 0 hr 19 min 37 sec) 
Heartbeat CPU  0 instructions:  574000003 cycles:  512445945 heartbeat IPC: 1.17070 cumulative IPC: 1.02600 (Simulation time: 0 hr 19 min 39 sec) 
Heartbeat CPU  0 instructions:  575000000 cycles:  513309257 heartbeat IPC: 1.15833 cumulative IPC: 1.02625 (Simulation time: 0 hr 19 min 41 sec) 
Heartbeat CPU  0 instructions:  576000000 cycles:  514174009 heartbeat IPC: 1.15640 cumulative IPC: 1.02649 (Simulation time: 0 hr 19 min 43 sec) 
Heartbeat CPU  0 instructions:  577000002 cycles:  515040096 heartbeat IPC: 1.15462 cumulative IPC: 1.02673 (Simulation time: 0 hr 19 min 45 sec) 
Heartbeat CPU  0 instructions:  578000003 cycles:  515904119 heartbeat IPC: 1.15738 cumulative IPC: 1.02697 (Simulation time: 0 hr 19 min 47 sec) 
Heartbeat CPU  0 instructions:  579000000 cycles:  516759648 heartbeat IPC: 1.16886 cumulative IPC: 1.02723 (Simulation time: 0 hr 19 min 49 sec) 
Heartbeat CPU  0 instructions:  580000000 cycles:  517613502 heartbeat IPC: 1.17116 cumulative IPC: 1.02749 (Simulation time: 0 hr 19 min 51 sec) 
Heartbeat CPU  0 instructions:  581000002 cycles:  518464940 heartbeat IPC: 1.17449 cumulative IPC: 1.02776 (Simulation time: 0 hr 19 min 53 sec) 
Heartbeat CPU  0 instructions:  582000000 cycles:  519322033 heartbeat IPC: 1.16673 cumulative IPC: 1.02802 (Simulation time: 0 hr 19 min 55 sec) 
Heartbeat CPU  0 instructions:  583000000 cycles:  520170793 heartbeat IPC: 1.17819 cumulative IPC: 1.02829 (Simulation time: 0 hr 19 min 57 sec) 
Heartbeat CPU  0 instructions:  584000000 cycles:  521033781 heartbeat IPC: 1.15876 cumulative IPC: 1.02853 (Simulation time: 0 hr 19 min 59 sec) 
Heartbeat CPU  0 instructions:  585000001 cycles:  521885384 heartbeat IPC: 1.17426 cumulative IPC: 1.02879 (Simulation time: 0 hr 20 min 1 sec) 
Heartbeat CPU  0 instructions:  586000000 cycles:  522746480 heartbeat IPC: 1.16131 cumulative IPC: 1.02903 (Simulation time: 0 hr 20 min 3 sec) 
Heartbeat CPU  0 instructions:  587000000 cycles:  523608462 heartbeat IPC: 1.16012 cumulative IPC: 1.02927 (Simulation time: 0 hr 20 min 6 sec) 
Heartbeat CPU  0 instructions:  588000000 cycles:  524501952 heartbeat IPC: 1.11921 cumulative IPC: 1.02944 (Simulation time: 0 hr 20 min 8 sec) 
Heartbeat CPU  0 instructions:  589000001 cycles:  525356985 heartbeat IPC: 1.16955 cumulative IPC: 1.02969 (Simulation time: 0 hr 20 min 10 sec) 
Heartbeat CPU  0 instructions:  590000003 cycles:  526215005 heartbeat IPC: 1.16548 cumulative IPC: 1.02994 (Simulation time: 0 hr 20 min 12 sec) 
Heartbeat CPU  0 instructions:  591000002 cycles:  527066467 heartbeat IPC: 1.17445 cumulative IPC: 1.03020 (Simulation time: 0 hr 20 min 14 sec) 
Heartbeat CPU  0 instructions:  592000000 cycles:  527920120 heartbeat IPC: 1.17143 cumulative IPC: 1.03045 (Simulation time: 0 hr 20 min 16 sec) 
Heartbeat CPU  0 instructions:  593000000 cycles:  528777187 heartbeat IPC: 1.16677 cumulative IPC: 1.03069 (Simulation time: 0 hr 20 min 18 sec) 
Heartbeat CPU  0 instructions:  594000003 cycles:  529625730 heartbeat IPC: 1.17849 cumulative IPC: 1.03095 (Simulation time: 0 hr 20 min 20 sec) 
Heartbeat CPU  0 instructions:  595000000 cycles:  530486050 heartbeat IPC: 1.16235 cumulative IPC: 1.03119 (Simulation time: 0 hr 20 min 22 sec) 
Heartbeat CPU  0 instructions:  596000000 cycles:  531337468 heartbeat IPC: 1.17451 cumulative IPC: 1.03144 (Simulation time: 0 hr 20 min 24 sec) 
Heartbeat CPU  0 instructions:  597000001 cycles:  532193001 heartbeat IPC: 1.16886 cumulative IPC: 1.03169 (Simulation time: 0 hr 20 min 26 sec) 
Heartbeat CPU  0 instructions:  598000002 cycles:  533079811 heartbeat IPC: 1.12764 cumulative IPC: 1.03186 (Simulation time: 0 hr 20 min 28 sec) 
Heartbeat CPU  0 instructions:  599000000 cycles:  533936726 heartbeat IPC: 1.16697 cumulative IPC: 1.03210 (Simulation time: 0 hr 20 min 30 sec) 
Heartbeat CPU  0 instructions:  600000000 cycles:  534790594 heartbeat IPC: 1.17114 cumulative IPC: 1.03235 (Simulation time: 0 hr 20 min 32 sec) 
Finished CPU 0 instructions: 500000002 cycles: 484332750 cumulative IPC: 1.03235 (Simulation time: 0 hr 20 min 32 sec) 

ChampSim completed all CPUs

[ROI Statistics]
Core_0_instructions 500000002
Core_0_cycles 484332750
Core_0_IPC 1.03235

Core_0_branch_prediction_accuracy 99.14567
Core_0_branch_MPKI 0.22121
Core_0_average_ROB_occupancy_at_mispredict 245.20348

Core_0_L1D_total_access 145079424
Core_0_L1D_total_hit 139372593
Core_0_L1D_total_miss 5706831
Core_0_L1D_loads 131719930
Core_0_L1D_load_hit 127424027
Core_0_L1D_load_miss 4295903
Core_0_L1D_RFOs 13359494
Core_0_L1D_RFO_hit 11948566
Core_0_L1D_RFO_miss 1410928
Core_0_L1D_prefetches 0
Core_0_L1D_prefetch_hit 0
Core_0_L1D_prefetch_miss 0
Core_0_L1D_writebacks 0
Core_0_L1D_writeback_hit 0
Core_0_L1D_writeback_miss 0
Core_0_L1D_prefetch_requested 0
Core_0_L1D_prefetch_dropped 0
Core_0_L1D_prefetch_issued 0
Core_0_L1D_prefetch_filled 0
Core_0_L1D_prefetch_useful 0
Core_0_L1D_prefetch_useless 0
Core_0_L1D_prefetch_late 0
Core_0_L1D_average_miss_latency 65.63958

Core_0_L1D_rq_access 194152074
Core_0_L1D_rq_forward 0
Core_0_L1D_rq_merged 61354816
Core_0_L1D_rq_to_cache 132797258
Core_0_L1D_rq_full 0

Core_0_L1D_wq_access 17666329
Core_0_L1D_wq_forward 0
Core_0_L1D_wq_merged 2554
Core_0_L1D_wq_to_cache 17663775
Core_0_L1D_wq_full 0

Core_0_L1D_pq_access 0
Core_0_L1D_pq_forward 0
Core_0_L1D_pq_merged 0
Core_0_L1D_pq_to_cache 0
Core_0_L1D_pq_full 0

Core_0_L1D_acc_epochs 516122
Core_0_L1D_acc_level_0 516122
Core_0_L1D_acc_level_1 0
Core_0_L1D_acc_level_2 0
Core_0_L1D_acc_level_3 0
Core_0_L1D_acc_level_4 0
Core_0_L1D_acc_level_5 0
Core_0_L1D_acc_level_6 0
Core_0_L1D_acc_level_7 0
Core_0_L1D_acc_level_8 0
Core_0_L1D_acc_level_9 0

Core_0_L1I_total_access 115129571
Core_0_L1I_total_hit 115128765
Core_0_L1I_total_miss 806
Core_0_L1I_loads 115129571
Core_0_L1I_load_hit 115128765
Core_0_L1I_load_miss 806
Core_0_L1I_RFOs 0
Core_0_L1I_RFO_hit 0
Core_0_L1I_RFO_miss 0
Core_0_L1I_prefetches 0
Core_0_L1I_prefetch_hit 0
Core_0_L1I_prefetch_miss 0
Core_0_L1I_writebacks 0
Core_0_L1I_writeback_hit 0
Core_0_L1I_writeback_miss 0
Core_0_L1I_prefetch_requested 0
Core_0_L1I_prefetch_dropped 0
Core_0_L1I_prefetch_issued 0
Core_0_L1I_prefetch_filled 0
Core_0_L1I_prefetch_useful 0
Core_0_L1I_prefetch_useless 0
Core_0_L1I_prefetch_late 0
Core_0_L1I_average_miss_latency 236.51737

Core_0_L1I_rq_access 500000001
Core_0_L1I_rq_forward 0
Core_0_L1I_rq_merged 384869262
Core_0_L1I_rq_to_cache 115130739
Core_0_L1I_rq_full 0

Core_0_L1I_wq_access 0
Core_0_L1I_wq_forward 0
Core_0_L1I_wq_merged 0
Core_0_L1I_wq_to_cache 0
Core_0_L1I_wq_full 0

Core_0_L1I_pq_access 0
Core_0_L1I_pq_forward 0
Core_0_L1I_pq_merged 0
Core_0_L1I_pq_to_cache 0
Core_0_L1I_pq_full 0

Core_0_L1I_acc_epochs 516122
Core_0_L1I_acc_level_0 516122
Core_0_L1I_acc_level_1 0
Core_0_L1I_acc_level_2 0
Core_0_L1I_acc_level_3 0
Core_0_L1I_acc_level_4 0
Core_0_L1I_acc_level_5 0
Core_0_L1I_acc_level_6 0
Core_0_L1I_acc_level_7 0
Core_0_L1I_acc_level_8 0
Core_0_L1I_acc_level_9 0

Core_0_L2C_total_access 10580017
Core_0_L2C_total_hit 6268513
Core_0_L2C_total_miss 4311504
Core_0_L2C_loads 4296673
Core_0_L2C_load_hit 3886984
Core_0_L2C_load_miss 409689
Core_0_L2C_RFOs 1410621
Core_0_L2C_RFO_hit 441279
Core_0_L2C_RFO_miss 969342
Core_0_L2C_prefetches 3027314
Core_0_L2C_prefetch_hit 96609
Core_0_L2C_prefetch_miss 2930705
Core_0_L2C_writebacks 1845409
Core_0_L2C_writeback_hit 1843641
Core_0_L2C_writeback_miss 1768
Core_0_L2C_prefetch_requested 3918497
Core_0_L2C_prefetch_dropped 0
Core_0_L2C_prefetch_issued 3918497
Core_0_L2C_prefetch_filled 3590385
Core_0_L2C_prefetch_useful 3544858
Core_0_L2C_prefetch_useless 45101
Core_0_L2C_prefetch_late 12853
Core_0_L2C_average_miss_latency 277.66772

Core_0_L2C_rq_access 5707637
Core_0_L2C_rq_forward 0
Core_0_L2C_rq_merged 0
Core_0_L2C_rq_to_cache 5707294
Core_0_L2C_rq_full 0

Core_0_L2C_wq_access 1845409
Core_0_L2C_wq_forward 343
Core_0_L2C_wq_merged 0
Core_0_L2C_wq_to_cache 1845409
Core_0_L2C_wq_full 0

Core_0_L2C_pq_access 3918497
Core_0_L2C_pq_forward 0
Core_0_L2C_pq_merged 0
Core_0_L2C_pq_to_cache 3918497
Core_0_L2C_pq_full 0

Core_0_L2C_acc_epochs 516122
Core_0_L2C_acc_level_0 298330
Core_0_L2C_acc_level_1 53271
Core_0_L2C_acc_level_2 32750
Core_0_L2C_acc_level_3 21065
Core_0_L2C_acc_level_4 14599
Core_0_L2C_acc_level_5 17045
Core_0_L2C_acc_level_6 9988
Core_0_L2C_acc_level_7 7772
Core_0_L2C_acc_level_8 5753
Core_0_L2C_acc_level_9 55549

Core_0_LLC_total_access 5806528
Core_0_LLC_total_hit 1353091
Core_0_LLC_total_miss 4453437
Core_0_LLC_loads 396844
Core_0_LLC_load_hit 165524
Core_0_LLC_load_miss 231320
Core_0_LLC_RFOs 969339
Core_0_LLC_RFO_hit 79517
Core_0_LLC_RFO_miss 889822
Core_0_LLC_prefetches 3122023
Core_0_LLC_prefetch_hit 653117
Core_0_LLC_prefetch_miss 2468906
Core_0_LLC_writebacks 1318322
Core_0_LLC_writeback_hit 454933
Core_0_LLC_writeback_miss 863389
Core_0_LLC_prefetch_requested 0
Core_0_LLC_prefetch_dropped 0
Core_0_LLC_prefetch_issued 0
Core_0_LLC_prefetch_filled 2972628
Core_0_LLC_prefetch_useful 130988
Core_0_LLC_prefetch_useless 2839079
Core_0_LLC_prefetch_late 70
Core_0_LLC_average_miss_latency 249.25629

Core_0_LLC_rq_access 1366183
Core_0_LLC_rq_forward 0
Core_0_LLC_rq_merged 0
Core_0_LLC_rq_to_cache 1366183
Core_0_LLC_rq_full 0

Core_0_LLC_wq_access 1318322
Core_0_LLC_wq_forward 1
Core_0_LLC_wq_merged 0
Core_0_LLC_wq_to_cache 1318322
Core_0_LLC_wq_full 0

Core_0_LLC_pq_access 3794342
Core_0_LLC_pq_forward 0
Core_0_LLC_pq_merged 0
Core_0_LLC_pq_to_cache 3794341
Core_0_LLC_pq_full 0

Core_0_LLC_acc_epochs 522257
Core_0_LLC_acc_level_0 502769
Core_0_LLC_acc_level_1 7845
Core_0_LLC_acc_level_2 3590
Core_0_LLC_acc_level_3 2009
Core_0_LLC_acc_level_4 1053
Core_0_LLC_acc_level_5 1545
Core_0_LLC_acc_level_6 684
Core_0_LLC_acc_level_7 632
Core_0_LLC_acc_level_8 324
Core_0_LLC_acc_level_9 1806

Core_0_major_page_fault 0
Core_0_minor_page_fault 19646

[Bingo] PHT Access: 188944
[Bingo] PHT Hit PC+Addr: 7524
[Bingo] PHT Hit PC+Offs: 169872
[Bingo] PHT Miss: 11548
[Bingo] Prefetch PC+Addr: 0
[Bingo] Prefetch PC+Offs: 0
[Bingo] Useful PC+Addr: 0
[Bingo] Useful PC+Offs: 0
[Bingo] Useless PC+Addr: 0
[Bingo] Useless PC+Offs: 0
[Bingo] L1 Prefetch per Region: 0.00000
[Bingo] L2 Prefetch per Region: 22.11743
[Bingo] L3 Prefetch per Region: 1.13868
[Bingo] No Prefetch per Region: 8.74388
[Bingo] Number of Voters Mean: 13.06611
[Bingo] Number of Voters SD: 4.51152

Channel_0_RQ_row_buffer_hit 2024934
Channel_0_RQ_row_buffer_miss 1565091
Channel_0_WQ_row_buffer_hit 423684
Channel_0_WQ_row_buffer_miss 731944
Channel_0_WQ_full 854
Channel_0_dbus_congested 3104051

avg_congested_cycle 11

DRAM_bw_pochs 2089026
DRAM_bw_level_0 1743903
DRAM_bw_level_1 139903
DRAM_bw_level_2 56798
DRAM_bw_level_3 148422
