*************************************************
   ChampSim Multicore Out-of-Order Simulator
   Last compiled: Dec 11 2024 17:59:53
*************************************************
parsing config file: /home/functionmain/桌面/Pythia/config/mlop.ini

trace_0 /home/functionmain/桌面/Pythia/traces/437.leslie3d-232B.champsimtrace.xz
adding L2C_PREFETCHER: MLOP
Initialize SHIP state
warmup_instructions 100000000
simulation_instructions 500000000
champsim_seed 217
measure_ipc 0
measure_ipc_epoch 1000
measure_dram_bw 1
measure_dram_bw_epoch 256
measure_cache_acc 1
measure_cache_acc_epoch 1024
l1d_perfect 0
l2c_perfect 0
llc_perfect 0
l1d_semi_perfect 0
l2c_semi_perfect 0
llc_semi_perfect 0
semi_perfect_cache_page_buffer_size 64

num_cpus 1
cpu_freq 4000
dram_io_freq 9600
page_size 4096
block_size 64
max_read_per_cycle 8
max_fill_per_cycle 1
dram_channels 1
log2_dram_channels 0
dram_ranks 1
dram_banks 8
dram_rows 65536
dram_columns 128
dram_row_size 8
dram_size 4096
dram_pages 1048576

fetch_width 6
decode_width 6
exec_width 4
lq_width 2
sq_width 2
retire_width 4
scheduler_size 128
branch_mispredict_penalty 20
rob_size 256
lq_size 72
sq_size 56
num_instr_destinations_sparc 4
num_instr_destinations 2
num_instr_sources 4

itlb_set 16
itlb_way 8
itlb_rq_size 16
itlb_wq_size 16
itlb_pq_size 0
itlb_mshr_size 8
itlb_latency 1

dtlb_set 16
dtlb_way 4
dtlb_rq_size 16
dtlb_wq_size 16
dtlb_pq_size 0
dtlb_mshr_size 8
dtlb_latency 1

stlb_set 128
stlb_way 12
stlb_rq_size 32
stlb_wq_size 32
stlb_pq_size 0
stlb_mshr_size 16
stlb_latency 8

l1i_size 32
l1i_set 64
l1i_way 8
l1i_rq_size 64
l1i_wq_size 64
l1i_pq_size 8
l1i_mshr_size 8
l1i_latency 1

l1d_size 32
l1d_set 64
l1d_way 8
l1d_rq_size 64
l1d_wq_size 64
l1d_pq_size 8
l1d_mshr_size 16
l1d_latency 4

l2c_size 256
l2c_set 512
l2c_way 8
l2c_rq_size 32
l2c_wq_size 32
l2c_pq_size 32
l2c_mshr_size 32
l2c_latency 10

llc_size 2048
llc_set 2048
llc_way 16
llc_rq_size 32
llc_wq_size 32
llc_pq_size 32
llc_mshr_size 64
llc_latency 20

dram_channel_width 8
dram_wq_size 64
dram_rq_size 64
tRP 15
tRCD 15
tCAS 12.5
dram_dbus_turn_around_time 30
dram_write_high_wm 56
dram_write_low_wm 48
min_dram_writes_per_switch 16
dram_mtps 9600
dram_dbus_return_time 3

mlop_pref_degree 16
mlop_num_updates 500
mlop_l1d_thresh 2
mlop_l2c_thresh 0.75
mlop_llc_thresh 0.3
mlop_debug_level 0
mlop_blocks_in_cache 4096
mlop_blocks_in_zone 64
mlop_amt_size 2048
mlop_PF_DEGREE 16
mlop_NUM_UPDATES 500
mlop_L1D_THRESH 1000
mlop_L2C_THRESH 375
mlop_LLC_THRESH 150
mlop_ORIGIN 63
mlop_MAX_OFFSET 63
mlop_MIN_OFFSET -63
mlop_ORIGIN 63
mlop_NUM_OFFSETS 127


Heartbeat CPU  0 instructions:    1000000 cycles:     488288 heartbeat IPC: 2.04797 cumulative IPC: 2.04797 (Simulation time: 0 hr 0 min 2 sec) 
Heartbeat CPU  0 instructions:    2000001 cycles:     996675 heartbeat IPC: 1.96701 cumulative IPC: 2.00667 (Simulation time: 0 hr 0 min 3 sec) 
Heartbeat CPU  0 instructions:    3000003 cycles:    1556166 heartbeat IPC: 1.78734 cumulative IPC: 1.92782 (Simulation time: 0 hr 0 min 5 sec) 
Heartbeat CPU  0 instructions:    4000000 cycles:    2081042 heartbeat IPC: 1.90521 cumulative IPC: 1.92211 (Simulation time: 0 hr 0 min 7 sec) 
Heartbeat CPU  0 instructions:    5000002 cycles:    2569271 heartbeat IPC: 2.04822 cumulative IPC: 1.94608 (Simulation time: 0 hr 0 min 9 sec) 
Heartbeat CPU  0 instructions:    6000003 cycles:    3056921 heartbeat IPC: 2.05065 cumulative IPC: 1.96276 (Simulation time: 0 hr 0 min 10 sec) 
Heartbeat CPU  0 instructions:    7000001 cycles:    3544966 heartbeat IPC: 2.04899 cumulative IPC: 1.97463 (Simulation time: 0 hr 0 min 12 sec) 
Heartbeat CPU  0 instructions:    8000000 cycles:    4033134 heartbeat IPC: 2.04847 cumulative IPC: 1.98357 (Simulation time: 0 hr 0 min 14 sec) 
Heartbeat CPU  0 instructions:    9000000 cycles:    4521746 heartbeat IPC: 2.04661 cumulative IPC: 1.99038 (Simulation time: 0 hr 0 min 16 sec) 
Heartbeat CPU  0 instructions:   10000003 cycles:    5010483 heartbeat IPC: 2.04610 cumulative IPC: 1.99582 (Simulation time: 0 hr 0 min 17 sec) 
Heartbeat CPU  0 instructions:   11000000 cycles:    5499319 heartbeat IPC: 2.04567 cumulative IPC: 2.00025 (Simulation time: 0 hr 0 min 19 sec) 
Heartbeat CPU  0 instructions:   12000000 cycles:    5987802 heartbeat IPC: 2.04715 cumulative IPC: 2.00407 (Simulation time: 0 hr 0 min 21 sec) 
Heartbeat CPU  0 instructions:   13000001 cycles:    6534669 heartbeat IPC: 1.82860 cumulative IPC: 1.98939 (Simulation time: 0 hr 0 min 23 sec) 
Heartbeat CPU  0 instructions:   14000001 cycles:    7090455 heartbeat IPC: 1.79925 cumulative IPC: 1.97449 (Simulation time: 0 hr 0 min 24 sec) 
Heartbeat CPU  0 instructions:   15000000 cycles:    7578702 heartbeat IPC: 2.04814 cumulative IPC: 1.97923 (Simulation time: 0 hr 0 min 26 sec) 
Heartbeat CPU  0 instructions:   16000000 cycles:    8067029 heartbeat IPC: 2.04781 cumulative IPC: 1.98338 (Simulation time: 0 hr 0 min 28 sec) 
Heartbeat CPU  0 instructions:   17000003 cycles:    8555367 heartbeat IPC: 2.04777 cumulative IPC: 1.98706 (Simulation time: 0 hr 0 min 30 sec) 
Heartbeat CPU  0 instructions:   18000003 cycles:    9043730 heartbeat IPC: 2.04766 cumulative IPC: 1.99033 (Simulation time: 0 hr 0 min 31 sec) 
Heartbeat CPU  0 instructions:   19000001 cycles:    9532157 heartbeat IPC: 2.04738 cumulative IPC: 1.99325 (Simulation time: 0 hr 0 min 33 sec) 
Heartbeat CPU  0 instructions:   20000000 cycles:   10021110 heartbeat IPC: 2.04518 cumulative IPC: 1.99579 (Simulation time: 0 hr 0 min 35 sec) 
Heartbeat CPU  0 instructions:   21000000 cycles:   10510101 heartbeat IPC: 2.04503 cumulative IPC: 1.99808 (Simulation time: 0 hr 0 min 37 sec) 
Heartbeat CPU  0 instructions:   22000002 cycles:   10998530 heartbeat IPC: 2.04738 cumulative IPC: 2.00027 (Simulation time: 0 hr 0 min 38 sec) 
Heartbeat CPU  0 instructions:   23000002 cycles:   11513857 heartbeat IPC: 1.94052 cumulative IPC: 1.99759 (Simulation time: 0 hr 0 min 40 sec) 
Heartbeat CPU  0 instructions:   24000000 cycles:   12072931 heartbeat IPC: 1.78867 cumulative IPC: 1.98792 (Simulation time: 0 hr 0 min 42 sec) 
Heartbeat CPU  0 instructions:   25000001 cycles:   12588700 heartbeat IPC: 1.93885 cumulative IPC: 1.98591 (Simulation time: 0 hr 0 min 44 sec) 
Heartbeat CPU  0 instructions:   26000001 cycles:   13077393 heartbeat IPC: 2.04627 cumulative IPC: 1.98816 (Simulation time: 0 hr 0 min 45 sec) 
Heartbeat CPU  0 instructions:   27000000 cycles:   13565970 heartbeat IPC: 2.04676 cumulative IPC: 1.99027 (Simulation time: 0 hr 0 min 47 sec) 
Heartbeat CPU  0 instructions:   28000000 cycles:   14054882 heartbeat IPC: 2.04536 cumulative IPC: 1.99219 (Simulation time: 0 hr 0 min 49 sec) 
Heartbeat CPU  0 instructions:   29000002 cycles:   14543481 heartbeat IPC: 2.04667 cumulative IPC: 1.99402 (Simulation time: 0 hr 0 min 51 sec) 
Heartbeat CPU  0 instructions:   30000001 cycles:   15032337 heartbeat IPC: 2.04559 cumulative IPC: 1.99570 (Simulation time: 0 hr 0 min 53 sec) 
Heartbeat CPU  0 instructions:   31000001 cycles:   15520436 heartbeat IPC: 2.04876 cumulative IPC: 1.99737 (Simulation time: 0 hr 0 min 54 sec) 
Heartbeat CPU  0 instructions:   32000000 cycles:   16008621 heartbeat IPC: 2.04840 cumulative IPC: 1.99892 (Simulation time: 0 hr 0 min 56 sec) 
Heartbeat CPU  0 instructions:   33000002 cycles:   16496942 heartbeat IPC: 2.04784 cumulative IPC: 2.00037 (Simulation time: 0 hr 0 min 58 sec) 
Heartbeat CPU  0 instructions:   34000001 cycles:   17052146 heartbeat IPC: 1.80114 cumulative IPC: 1.99388 (Simulation time: 0 hr 1 min 0 sec) 
Heartbeat CPU  0 instructions:   35000001 cycles:   17599029 heartbeat IPC: 1.82854 cumulative IPC: 1.98875 (Simulation time: 0 hr 1 min 1 sec) 
Heartbeat CPU  0 instructions:   36000000 cycles:   18087444 heartbeat IPC: 2.04744 cumulative IPC: 1.99033 (Simulation time: 0 hr 1 min 3 sec) 
Heartbeat CPU  0 instructions:   37000003 cycles:   18576545 heartbeat IPC: 2.04457 cumulative IPC: 1.99176 (Simulation time: 0 hr 1 min 5 sec) 
Heartbeat CPU  0 instructions:   38000001 cycles:   19065292 heartbeat IPC: 2.04604 cumulative IPC: 1.99315 (Simulation time: 0 hr 1 min 7 sec) 
Heartbeat CPU  0 instructions:   39000002 cycles:   19553964 heartbeat IPC: 2.04636 cumulative IPC: 1.99448 (Simulation time: 0 hr 1 min 9 sec) 
Heartbeat CPU  0 instructions:   40000000 cycles:   20041919 heartbeat IPC: 2.04937 cumulative IPC: 1.99582 (Simulation time: 0 hr 1 min 10 sec) 
Heartbeat CPU  0 instructions:   41000001 cycles:   20529862 heartbeat IPC: 2.04942 cumulative IPC: 1.99709 (Simulation time: 0 hr 1 min 12 sec) 
Heartbeat CPU  0 instructions:   42000001 cycles:   21018077 heartbeat IPC: 2.04828 cumulative IPC: 1.99828 (Simulation time: 0 hr 1 min 14 sec) 
Heartbeat CPU  0 instructions:   43000001 cycles:   21506646 heartbeat IPC: 2.04679 cumulative IPC: 1.99938 (Simulation time: 0 hr 1 min 16 sec) 
Heartbeat CPU  0 instructions:   44000000 cycles:   22030835 heartbeat IPC: 1.90771 cumulative IPC: 1.99720 (Simulation time: 0 hr 1 min 17 sec) 
Heartbeat CPU  0 instructions:   45000000 cycles:   22590424 heartbeat IPC: 1.78703 cumulative IPC: 1.99199 (Simulation time: 0 hr 1 min 19 sec) 
Heartbeat CPU  0 instructions:   46000002 cycles:   23098703 heartbeat IPC: 1.96743 cumulative IPC: 1.99145 (Simulation time: 0 hr 1 min 21 sec) 
Heartbeat CPU  0 instructions:   47000002 cycles:   23587404 heartbeat IPC: 2.04624 cumulative IPC: 1.99259 (Simulation time: 0 hr 1 min 23 sec) 
Heartbeat CPU  0 instructions:   48000000 cycles:   24075591 heartbeat IPC: 2.04839 cumulative IPC: 1.99372 (Simulation time: 0 hr 1 min 24 sec) 
Heartbeat CPU  0 instructions:   49000002 cycles:   24563697 heartbeat IPC: 2.04874 cumulative IPC: 1.99481 (Simulation time: 0 hr 1 min 26 sec) 
Heartbeat CPU  0 instructions:   50000000 cycles:   25052135 heartbeat IPC: 2.04734 cumulative IPC: 1.99584 (Simulation time: 0 hr 1 min 28 sec) 
Heartbeat CPU  0 instructions:   51000002 cycles:   25540405 heartbeat IPC: 2.04805 cumulative IPC: 1.99684 (Simulation time: 0 hr 1 min 30 sec) 
Heartbeat CPU  0 instructions:   52000000 cycles:   26028872 heartbeat IPC: 2.04722 cumulative IPC: 1.99778 (Simulation time: 0 hr 1 min 31 sec) 
Heartbeat CPU  0 instructions:   53000000 cycles:   26517202 heartbeat IPC: 2.04780 cumulative IPC: 1.99870 (Simulation time: 0 hr 1 min 33 sec) 
Heartbeat CPU  0 instructions:   54000000 cycles:   27009857 heartbeat IPC: 2.02982 cumulative IPC: 1.99927 (Simulation time: 0 hr 1 min 35 sec) 
Heartbeat CPU  0 instructions:   55000002 cycles:   27568986 heartbeat IPC: 1.78850 cumulative IPC: 1.99500 (Simulation time: 0 hr 1 min 37 sec) 
Heartbeat CPU  0 instructions:   56000000 cycles:   28109398 heartbeat IPC: 1.85044 cumulative IPC: 1.99222 (Simulation time: 0 hr 1 min 38 sec) 
Heartbeat CPU  0 instructions:   57000000 cycles:   28597440 heartbeat IPC: 2.04900 cumulative IPC: 1.99319 (Simulation time: 0 hr 1 min 40 sec) 
Heartbeat CPU  0 instructions:   58000003 cycles:   29085336 heartbeat IPC: 2.04962 cumulative IPC: 1.99413 (Simulation time: 0 hr 1 min 42 sec) 
Heartbeat CPU  0 instructions:   59000001 cycles:   29573424 heartbeat IPC: 2.04881 cumulative IPC: 1.99503 (Simulation time: 0 hr 1 min 44 sec) 
Heartbeat CPU  0 instructions:   60000000 cycles:   30061851 heartbeat IPC: 2.04739 cumulative IPC: 1.99589 (Simulation time: 0 hr 1 min 45 sec) 
Heartbeat CPU  0 instructions:   61000000 cycles:   30550475 heartbeat IPC: 2.04656 cumulative IPC: 1.99670 (Simulation time: 0 hr 1 min 47 sec) 
Heartbeat CPU  0 instructions:   62000000 cycles:   31039387 heartbeat IPC: 2.04536 cumulative IPC: 1.99746 (Simulation time: 0 hr 1 min 49 sec) 
Heartbeat CPU  0 instructions:   63000002 cycles:   31528021 heartbeat IPC: 2.04653 cumulative IPC: 1.99822 (Simulation time: 0 hr 1 min 51 sec) 
Heartbeat CPU  0 instructions:   64000000 cycles:   32016574 heartbeat IPC: 2.04686 cumulative IPC: 1.99896 (Simulation time: 0 hr 1 min 52 sec) 
Heartbeat CPU  0 instructions:   65000000 cycles:   32547689 heartbeat IPC: 1.88283 cumulative IPC: 1.99707 (Simulation time: 0 hr 1 min 54 sec) 
Heartbeat CPU  0 instructions:   66000001 cycles:   33106838 heartbeat IPC: 1.78843 cumulative IPC: 1.99355 (Simulation time: 0 hr 1 min 56 sec) 
Heartbeat CPU  0 instructions:   67000000 cycles:   33607087 heartbeat IPC: 1.99900 cumulative IPC: 1.99363 (Simulation time: 0 hr 1 min 58 sec) 
Heartbeat CPU  0 instructions:   68000000 cycles:   34095388 heartbeat IPC: 2.04792 cumulative IPC: 1.99440 (Simulation time: 0 hr 1 min 59 sec) 
Heartbeat CPU  0 instructions:   69000001 cycles:   34583956 heartbeat IPC: 2.04680 cumulative IPC: 1.99514 (Simulation time: 0 hr 2 min 1 sec) 
Heartbeat CPU  0 instructions:   70000001 cycles:   35072161 heartbeat IPC: 2.04832 cumulative IPC: 1.99589 (Simulation time: 0 hr 2 min 3 sec) 
Heartbeat CPU  0 instructions:   71000003 cycles:   35561014 heartbeat IPC: 2.04561 cumulative IPC: 1.99657 (Simulation time: 0 hr 2 min 5 sec) 
Heartbeat CPU  0 instructions:   72000000 cycles:   36049936 heartbeat IPC: 2.04531 cumulative IPC: 1.99723 (Simulation time: 0 hr 2 min 7 sec) 
Heartbeat CPU  0 instructions:   73000001 cycles:   36538848 heartbeat IPC: 2.04536 cumulative IPC: 1.99787 (Simulation time: 0 hr 2 min 8 sec) 
Heartbeat CPU  0 instructions:   74000000 cycles:   37026981 heartbeat IPC: 2.04862 cumulative IPC: 1.99854 (Simulation time: 0 hr 2 min 10 sec) 
Heartbeat CPU  0 instructions:   75000001 cycles:   37526740 heartbeat IPC: 2.00097 cumulative IPC: 1.99857 (Simulation time: 0 hr 2 min 12 sec) 
Heartbeat CPU  0 instructions:   76000000 cycles:   38085864 heartbeat IPC: 1.78851 cumulative IPC: 1.99549 (Simulation time: 0 hr 2 min 14 sec) 
Heartbeat CPU  0 instructions:   77000002 cycles:   38616954 heartbeat IPC: 1.88292 cumulative IPC: 1.99394 (Simulation time: 0 hr 2 min 15 sec) 
Heartbeat CPU  0 instructions:   78000001 cycles:   39105449 heartbeat IPC: 2.04710 cumulative IPC: 1.99461 (Simulation time: 0 hr 2 min 17 sec) 
Heartbeat CPU  0 instructions:   79000001 cycles:   39594385 heartbeat IPC: 2.04526 cumulative IPC: 1.99523 (Simulation time: 0 hr 2 min 19 sec) 
Heartbeat CPU  0 instructions:   80000000 cycles:   40083053 heartbeat IPC: 2.04638 cumulative IPC: 1.99586 (Simulation time: 0 hr 2 min 21 sec) 
Heartbeat CPU  0 instructions:   81000003 cycles:   40571885 heartbeat IPC: 2.04570 cumulative IPC: 1.99646 (Simulation time: 0 hr 2 min 22 sec) 
Heartbeat CPU  0 instructions:   82000001 cycles:   41060215 heartbeat IPC: 2.04779 cumulative IPC: 1.99707 (Simulation time: 0 hr 2 min 24 sec) 
Heartbeat CPU  0 instructions:   83000000 cycles:   41548314 heartbeat IPC: 2.04876 cumulative IPC: 1.99767 (Simulation time: 0 hr 2 min 26 sec) 
Heartbeat CPU  0 instructions:   84000000 cycles:   42036496 heartbeat IPC: 2.04842 cumulative IPC: 1.99826 (Simulation time: 0 hr 2 min 28 sec) 
Heartbeat CPU  0 instructions:   85000002 cycles:   42524882 heartbeat IPC: 2.04756 cumulative IPC: 1.99883 (Simulation time: 0 hr 2 min 29 sec) 
Heartbeat CPU  0 instructions:   86000000 cycles:   43065366 heartbeat IPC: 1.85019 cumulative IPC: 1.99696 (Simulation time: 0 hr 2 min 31 sec) 
Heartbeat CPU  0 instructions:   87000002 cycles:   43624648 heartbeat IPC: 1.78801 cumulative IPC: 1.99429 (Simulation time: 0 hr 2 min 33 sec) 
Heartbeat CPU  0 instructions:   88000000 cycles:   44136235 heartbeat IPC: 1.95470 cumulative IPC: 1.99383 (Simulation time: 0 hr 2 min 35 sec) 
Heartbeat CPU  0 instructions:   89000002 cycles:   44663721 heartbeat IPC: 1.89579 cumulative IPC: 1.99267 (Simulation time: 0 hr 2 min 36 sec) 
Heartbeat CPU  0 instructions:   90000002 cycles:   45190620 heartbeat IPC: 1.89790 cumulative IPC: 1.99156 (Simulation time: 0 hr 2 min 38 sec) 
Heartbeat CPU  0 instructions:   91000003 cycles:   45718002 heartbeat IPC: 1.89616 cumulative IPC: 1.99046 (Simulation time: 0 hr 2 min 40 sec) 
Heartbeat CPU  0 instructions:   92000000 cycles:   46244778 heartbeat IPC: 1.89833 cumulative IPC: 1.98941 (Simulation time: 0 hr 2 min 42 sec) 
Heartbeat CPU  0 instructions:   93000001 cycles:   46771862 heartbeat IPC: 1.89723 cumulative IPC: 1.98837 (Simulation time: 0 hr 2 min 44 sec) 
Heartbeat CPU  0 instructions:   94000003 cycles:   47300151 heartbeat IPC: 1.89291 cumulative IPC: 1.98731 (Simulation time: 0 hr 2 min 45 sec) 
Heartbeat CPU  0 instructions:   95000001 cycles:   47827281 heartbeat IPC: 1.89706 cumulative IPC: 1.98631 (Simulation time: 0 hr 2 min 47 sec) 
Heartbeat CPU  0 instructions:   96000000 cycles:   48354384 heartbeat IPC: 1.89716 cumulative IPC: 1.98534 (Simulation time: 0 hr 2 min 49 sec) 
Heartbeat CPU  0 instructions:   97000003 cycles:   48882507 heartbeat IPC: 1.89350 cumulative IPC: 1.98435 (Simulation time: 0 hr 2 min 51 sec) 
Heartbeat CPU  0 instructions:   98000002 cycles:   49409033 heartbeat IPC: 1.89924 cumulative IPC: 1.98344 (Simulation time: 0 hr 2 min 52 sec) 
Heartbeat CPU  0 instructions:   99000002 cycles:   49935817 heartbeat IPC: 1.89831 cumulative IPC: 1.98254 (Simulation time: 0 hr 2 min 54 sec) 
Heartbeat CPU  0 instructions:  100000000 cycles:   50463074 heartbeat IPC: 1.89660 cumulative IPC: 1.98165 (Simulation time: 0 hr 2 min 56 sec) 

Warmup complete CPU  0 instructions:  100000001 cycles:   50463075 (Simulation time: 0 hr 2 min 56 sec) 

Heartbeat CPU  0 instructions:  101000002 cycles:   51438056 heartbeat IPC: 1.02566 cumulative IPC: 1.02566 (Simulation time: 0 hr 2 min 58 sec) 
Heartbeat CPU  0 instructions:  102000002 cycles:   52413932 heartbeat IPC: 1.02472 cumulative IPC: 1.02519 (Simulation time: 0 hr 3 min 0 sec) 
Heartbeat CPU  0 instructions:  103000000 cycles:   53385808 heartbeat IPC: 1.02894 cumulative IPC: 1.02644 (Simulation time: 0 hr 3 min 3 sec) 
Heartbeat CPU  0 instructions:  104000000 cycles:   54391699 heartbeat IPC: 0.99414 cumulative IPC: 1.01817 (Simulation time: 0 hr 3 min 5 sec) 
Heartbeat CPU  0 instructions:  105000002 cycles:   55419651 heartbeat IPC: 0.97281 cumulative IPC: 1.00876 (Simulation time: 0 hr 3 min 7 sec) 
Heartbeat CPU  0 instructions:  106000000 cycles:   56438891 heartbeat IPC: 0.98112 cumulative IPC: 1.00405 (Simulation time: 0 hr 3 min 9 sec) 
Heartbeat CPU  0 instructions:  107000003 cycles:   57448739 heartbeat IPC: 0.99025 cumulative IPC: 1.00205 (Simulation time: 0 hr 3 min 11 sec) 
Heartbeat CPU  0 instructions:  108000000 cycles:   58457699 heartbeat IPC: 0.99112 cumulative IPC: 1.00067 (Simulation time: 0 hr 3 min 13 sec) 
Heartbeat CPU  0 instructions:  109000002 cycles:   59449964 heartbeat IPC: 1.00780 cumulative IPC: 1.00146 (Simulation time: 0 hr 3 min 16 sec) 
Heartbeat CPU  0 instructions:  110000000 cycles:   60448788 heartbeat IPC: 1.00118 cumulative IPC: 1.00143 (Simulation time: 0 hr 3 min 18 sec) 
Heartbeat CPU  0 instructions:  111000000 cycles:   61421449 heartbeat IPC: 1.02811 cumulative IPC: 1.00380 (Simulation time: 0 hr 3 min 20 sec) 
Heartbeat CPU  0 instructions:  112000000 cycles:   62407758 heartbeat IPC: 1.01388 cumulative IPC: 1.00463 (Simulation time: 0 hr 3 min 22 sec) 
Heartbeat CPU  0 instructions:  113000001 cycles:   63399694 heartbeat IPC: 1.00813 cumulative IPC: 1.00490 (Simulation time: 0 hr 3 min 24 sec) 
Heartbeat CPU  0 instructions:  114000002 cycles:   64399420 heartbeat IPC: 1.00028 cumulative IPC: 1.00457 (Simulation time: 0 hr 3 min 27 sec) 
Heartbeat CPU  0 instructions:  115000001 cycles:   65433365 heartbeat IPC: 0.96717 cumulative IPC: 1.00198 (Simulation time: 0 hr 3 min 29 sec) 
Heartbeat CPU  0 instructions:  116000000 cycles:   66457221 heartbeat IPC: 0.97670 cumulative IPC: 1.00037 (Simulation time: 0 hr 3 min 31 sec) 
Heartbeat CPU  0 instructions:  117000003 cycles:   67477303 heartbeat IPC: 0.98032 cumulative IPC: 0.99916 (Simulation time: 0 hr 3 min 33 sec) 
Heartbeat CPU  0 instructions:  118000000 cycles:   68476038 heartbeat IPC: 1.00126 cumulative IPC: 0.99928 (Simulation time: 0 hr 3 min 35 sec) 
Heartbeat CPU  0 instructions:  119000002 cycles:   69471696 heartbeat IPC: 1.00436 cumulative IPC: 0.99955 (Simulation time: 0 hr 3 min 37 sec) 
Heartbeat CPU  0 instructions:  120000000 cycles:   70453836 heartbeat IPC: 1.01818 cumulative IPC: 1.00046 (Simulation time: 0 hr 3 min 40 sec) 
Heartbeat CPU  0 instructions:  121000003 cycles:   71421128 heartbeat IPC: 1.03382 cumulative IPC: 1.00200 (Simulation time: 0 hr 3 min 42 sec) 
Heartbeat CPU  0 instructions:  122000003 cycles:   72391569 heartbeat IPC: 1.03046 cumulative IPC: 1.00326 (Simulation time: 0 hr 3 min 44 sec) 
Heartbeat CPU  0 instructions:  123000000 cycles:   73360907 heartbeat IPC: 1.03163 cumulative IPC: 1.00446 (Simulation time: 0 hr 3 min 46 sec) 
Heartbeat CPU  0 instructions:  124000000 cycles:   74334226 heartbeat IPC: 1.02741 cumulative IPC: 1.00540 (Simulation time: 0 hr 3 min 48 sec) 
Heartbeat CPU  0 instructions:  125000003 cycles:   75372645 heartbeat IPC: 0.96301 cumulative IPC: 1.00363 (Simulation time: 0 hr 3 min 50 sec) 
Heartbeat CPU  0 instructions:  126000000 cycles:   76401719 heartbeat IPC: 0.97174 cumulative IPC: 1.00237 (Simulation time: 0 hr 3 min 53 sec) 
Heartbeat CPU  0 instructions:  127000000 cycles:   77425136 heartbeat IPC: 0.97712 cumulative IPC: 1.00141 (Simulation time: 0 hr 3 min 55 sec) 
Heartbeat CPU  0 instructions:  128000000 cycles:   78452500 heartbeat IPC: 0.97336 cumulative IPC: 1.00038 (Simulation time: 0 hr 3 min 57 sec) 
Heartbeat CPU  0 instructions:  129000002 cycles:   79476041 heartbeat IPC: 0.97700 cumulative IPC: 0.99955 (Simulation time: 0 hr 3 min 59 sec) 
Heartbeat CPU  0 instructions:  130000001 cycles:   80461021 heartbeat IPC: 1.01525 cumulative IPC: 1.00007 (Simulation time: 0 hr 4 min 1 sec) 
Heartbeat CPU  0 instructions:  131000002 cycles:   81435949 heartbeat IPC: 1.02572 cumulative IPC: 1.00088 (Simulation time: 0 hr 4 min 4 sec) 
Heartbeat CPU  0 instructions:  132000000 cycles:   82403625 heartbeat IPC: 1.03340 cumulative IPC: 1.00186 (Simulation time: 0 hr 4 min 6 sec) 
Heartbeat CPU  0 instructions:  133000000 cycles:   83411705 heartbeat IPC: 0.99198 cumulative IPC: 1.00156 (Simulation time: 0 hr 4 min 8 sec) 
Heartbeat CPU  0 instructions:  134000001 cycles:   84398081 heartbeat IPC: 1.01381 cumulative IPC: 1.00192 (Simulation time: 0 hr 4 min 10 sec) 
Heartbeat CPU  0 instructions:  135000002 cycles:   85405396 heartbeat IPC: 0.99274 cumulative IPC: 1.00165 (Simulation time: 0 hr 4 min 12 sec) 
Heartbeat CPU  0 instructions:  136000000 cycles:   86413010 heartbeat IPC: 0.99244 cumulative IPC: 1.00139 (Simulation time: 0 hr 4 min 15 sec) 
Heartbeat CPU  0 instructions:  137000001 cycles:   87419470 heartbeat IPC: 0.99358 cumulative IPC: 1.00118 (Simulation time: 0 hr 4 min 17 sec) 
Heartbeat CPU  0 instructions:  138000003 cycles:   88419575 heartbeat IPC: 0.99990 cumulative IPC: 1.00115 (Simulation time: 0 hr 4 min 19 sec) 
Heartbeat CPU  0 instructions:  139000000 cycles:   89421518 heartbeat IPC: 0.99806 cumulative IPC: 1.00107 (Simulation time: 0 hr 4 min 21 sec) 
Heartbeat CPU  0 instructions:  140000000 cycles:   90354079 heartbeat IPC: 1.07232 cumulative IPC: 1.00273 (Simulation time: 0 hr 4 min 23 sec) 
Heartbeat CPU  0 instructions:  141000001 cycles:   91223688 heartbeat IPC: 1.14994 cumulative IPC: 1.00587 (Simulation time: 0 hr 4 min 25 sec) 
Heartbeat CPU  0 instructions:  142000001 cycles:   92086126 heartbeat IPC: 1.15950 cumulative IPC: 1.00906 (Simulation time: 0 hr 4 min 27 sec) 
Heartbeat CPU  0 instructions:  143000000 cycles:   92951183 heartbeat IPC: 1.15599 cumulative IPC: 1.01205 (Simulation time: 0 hr 4 min 29 sec) 
Heartbeat CPU  0 instructions:  144000000 cycles:   93810767 heartbeat IPC: 1.16335 cumulative IPC: 1.01505 (Simulation time: 0 hr 4 min 31 sec) 
Heartbeat CPU  0 instructions:  145000001 cycles:   94672207 heartbeat IPC: 1.16085 cumulative IPC: 1.01789 (Simulation time: 0 hr 4 min 33 sec) 
Heartbeat CPU  0 instructions:  146000001 cycles:   95532954 heartbeat IPC: 1.16178 cumulative IPC: 1.02064 (Simulation time: 0 hr 4 min 36 sec) 
Heartbeat CPU  0 instructions:  147000000 cycles:   96437620 heartbeat IPC: 1.10538 cumulative IPC: 1.02230 (Simulation time: 0 hr 4 min 38 sec) 
Heartbeat CPU  0 instructions:  148000000 cycles:   97542212 heartbeat IPC: 0.90531 cumulative IPC: 1.01956 (Simulation time: 0 hr 4 min 40 sec) 
Heartbeat CPU  0 instructions:  149000000 cycles:   98654117 heartbeat IPC: 0.89936 cumulative IPC: 1.01679 (Simulation time: 0 hr 4 min 42 sec) 
Heartbeat CPU  0 instructions:  150000001 cycles:   99763921 heartbeat IPC: 0.90106 cumulative IPC: 1.01418 (Simulation time: 0 hr 4 min 44 sec) 
Heartbeat CPU  0 instructions:  151000002 cycles:  100839918 heartbeat IPC: 0.92937 cumulative IPC: 1.01237 (Simulation time: 0 hr 4 min 46 sec) 
Heartbeat CPU  0 instructions:  152000000 cycles:  101866226 heartbeat IPC: 0.97436 cumulative IPC: 1.01161 (Simulation time: 0 hr 4 min 48 sec) 
Heartbeat CPU  0 instructions:  153000002 cycles:  102936335 heartbeat IPC: 0.93449 cumulative IPC: 1.01004 (Simulation time: 0 hr 4 min 50 sec) 
Heartbeat CPU  0 instructions:  154000000 cycles:  104044726 heartbeat IPC: 0.90221 cumulative IPC: 1.00781 (Simulation time: 0 hr 4 min 52 sec) 
Heartbeat CPU  0 instructions:  155000003 cycles:  105127148 heartbeat IPC: 0.92386 cumulative IPC: 1.00615 (Simulation time: 0 hr 4 min 54 sec) 
Heartbeat CPU  0 instructions:  156000000 cycles:  106365608 heartbeat IPC: 0.80745 cumulative IPC: 1.00174 (Simulation time: 0 hr 4 min 56 sec) 
Heartbeat CPU  0 instructions:  157000003 cycles:  107401638 heartbeat IPC: 0.96523 cumulative IPC: 1.00108 (Simulation time: 0 hr 4 min 58 sec) 
Heartbeat CPU  0 instructions:  158000003 cycles:  108530986 heartbeat IPC: 0.88547 cumulative IPC: 0.99883 (Simulation time: 0 hr 5 min 0 sec) 
Heartbeat CPU  0 instructions:  159000003 cycles:  109651785 heartbeat IPC: 0.89222 cumulative IPC: 0.99681 (Simulation time: 0 hr 5 min 2 sec) 
Heartbeat CPU  0 instructions:  160000000 cycles:  110729116 heartbeat IPC: 0.92822 cumulative IPC: 0.99559 (Simulation time: 0 hr 5 min 4 sec) 
Heartbeat CPU  0 instructions:  161000001 cycles:  111916106 heartbeat IPC: 0.84247 cumulative IPC: 0.99263 (Simulation time: 0 hr 5 min 7 sec) 
Heartbeat CPU  0 instructions:  162000001 cycles:  113271827 heartbeat IPC: 0.73761 cumulative IPC: 0.98712 (Simulation time: 0 hr 5 min 9 sec) 
Heartbeat CPU  0 instructions:  163000002 cycles:  114870116 heartbeat IPC: 0.62567 cumulative IPC: 0.97815 (Simulation time: 0 hr 5 min 12 sec) 
Heartbeat CPU  0 instructions:  164000000 cycles:  116435887 heartbeat IPC: 0.63866 cumulative IPC: 0.97010 (Simulation time: 0 hr 5 min 14 sec) 
Heartbeat CPU  0 instructions:  165000000 cycles:  118053713 heartbeat IPC: 0.61811 cumulative IPC: 0.96167 (Simulation time: 0 hr 5 min 17 sec) 
Heartbeat CPU  0 instructions:  166000002 cycles:  119676708 heartbeat IPC: 0.61615 cumulative IPC: 0.95357 (Simulation time: 0 hr 5 min 20 sec) 
Heartbeat CPU  0 instructions:  167000002 cycles:  121248791 heartbeat IPC: 0.63610 cumulative IPC: 0.94652 (Simulation time: 0 hr 5 min 22 sec) 
Heartbeat CPU  0 instructions:  168000000 cycles:  122877585 heartbeat IPC: 0.61395 cumulative IPC: 0.93904 (Simulation time: 0 hr 5 min 25 sec) 
Heartbeat CPU  0 instructions:  169000002 cycles:  124434163 heartbeat IPC: 0.64244 cumulative IPC: 0.93280 (Simulation time: 0 hr 5 min 27 sec) 
Heartbeat CPU  0 instructions:  170000002 cycles:  126015967 heartbeat IPC: 0.63219 cumulative IPC: 0.92650 (Simulation time: 0 hr 5 min 30 sec) 
Heartbeat CPU  0 instructions:  171000003 cycles:  127591346 heartbeat IPC: 0.63477 cumulative IPC: 0.92054 (Simulation time: 0 hr 5 min 33 sec) 
Heartbeat CPU  0 instructions:  172000000 cycles:  129101803 heartbeat IPC: 0.66205 cumulative IPC: 0.91558 (Simulation time: 0 hr 5 min 35 sec) 
Heartbeat CPU  0 instructions:  173000003 cycles:  130534438 heartbeat IPC: 0.69802 cumulative IPC: 0.91169 (Simulation time: 0 hr 5 min 38 sec) 
Heartbeat CPU  0 instructions:  174000000 cycles:  131966573 heartbeat IPC: 0.69826 cumulative IPC: 0.90794 (Simulation time: 0 hr 5 min 40 sec) 
Heartbeat CPU  0 instructions:  175000000 cycles:  133376504 heartbeat IPC: 0.70925 cumulative IPC: 0.90456 (Simulation time: 0 hr 5 min 43 sec) 
Heartbeat CPU  0 instructions:  176000000 cycles:  134791264 heartbeat IPC: 0.70683 cumulative IPC: 0.90124 (Simulation time: 0 hr 5 min 45 sec) 
Heartbeat CPU  0 instructions:  177000003 cycles:  136142138 heartbeat IPC: 0.74026 cumulative IPC: 0.89870 (Simulation time: 0 hr 5 min 48 sec) 
Heartbeat CPU  0 instructions:  178000001 cycles:  137500438 heartbeat IPC: 0.73621 cumulative IPC: 0.89617 (Simulation time: 0 hr 5 min 50 sec) 
Heartbeat CPU  0 instructions:  179000000 cycles:  138915997 heartbeat IPC: 0.70643 cumulative IPC: 0.89313 (Simulation time: 0 hr 5 min 53 sec) 
Heartbeat CPU  0 instructions:  180000000 cycles:  140309372 heartbeat IPC: 0.71768 cumulative IPC: 0.89041 (Simulation time: 0 hr 5 min 55 sec) 
Heartbeat CPU  0 instructions:  181000000 cycles:  141706166 heartbeat IPC: 0.71593 cumulative IPC: 0.88774 (Simulation time: 0 hr 5 min 58 sec) 
Heartbeat CPU  0 instructions:  182000001 cycles:  143096235 heartbeat IPC: 0.71939 cumulative IPC: 0.88521 (Simulation time: 0 hr 6 min 0 sec) 
Heartbeat CPU  0 instructions:  183000003 cycles:  144498211 heartbeat IPC: 0.71328 cumulative IPC: 0.88265 (Simulation time: 0 hr 6 min 3 sec) 
Heartbeat CPU  0 instructions:  184000000 cycles:  145882398 heartbeat IPC: 0.72244 cumulative IPC: 0.88032 (Simulation time: 0 hr 6 min 6 sec) 
Heartbeat CPU  0 instructions:  185000000 cycles:  147288468 heartbeat IPC: 0.71120 cumulative IPC: 0.87787 (Simulation time: 0 hr 6 min 8 sec) 
Heartbeat CPU  0 instructions:  186000002 cycles:  148683010 heartbeat IPC: 0.71708 cumulative IPC: 0.87559 (Simulation time: 0 hr 6 min 11 sec) 
Heartbeat CPU  0 instructions:  187000001 cycles:  150063897 heartbeat IPC: 0.72417 cumulative IPC: 0.87349 (Simulation time: 0 hr 6 min 13 sec) 
Heartbeat CPU  0 instructions:  188000000 cycles:  151461175 heartbeat IPC: 0.71568 cumulative IPC: 0.87130 (Simulation time: 0 hr 6 min 16 sec) 
Heartbeat CPU  0 instructions:  189000001 cycles:  152852624 heartbeat IPC: 0.71868 cumulative IPC: 0.86923 (Simulation time: 0 hr 6 min 18 sec) 
Heartbeat CPU  0 instructions:  190000002 cycles:  154247982 heartbeat IPC: 0.71666 cumulative IPC: 0.86718 (Simulation time: 0 hr 6 min 21 sec) 
Heartbeat CPU  0 instructions:  191000001 cycles:  155634165 heartbeat IPC: 0.72140 cumulative IPC: 0.86526 (Simulation time: 0 hr 6 min 23 sec) 
Heartbeat CPU  0 instructions:  192000000 cycles:  157027649 heartbeat IPC: 0.71763 cumulative IPC: 0.86333 (Simulation time: 0 hr 6 min 26 sec) 
Heartbeat CPU  0 instructions:  193000003 cycles:  158419451 heartbeat IPC: 0.71850 cumulative IPC: 0.86146 (Simulation time: 0 hr 6 min 28 sec) 
Heartbeat CPU  0 instructions:  194000002 cycles:  159408969 heartbeat IPC: 1.01059 cumulative IPC: 0.86281 (Simulation time: 0 hr 6 min 30 sec) 
Heartbeat CPU  0 instructions:  195000000 cycles:  160300147 heartbeat IPC: 1.12211 cumulative IPC: 0.86492 (Simulation time: 0 hr 6 min 33 sec) 
Heartbeat CPU  0 instructions:  196000000 cycles:  161142345 heartbeat IPC: 1.18737 cumulative IPC: 0.86737 (Simulation time: 0 hr 6 min 35 sec) 
Heartbeat CPU  0 instructions:  197000003 cycles:  161998423 heartbeat IPC: 1.16812 cumulative IPC: 0.86968 (Simulation time: 0 hr 6 min 37 sec) 
Heartbeat CPU  0 instructions:  198000000 cycles:  162854603 heartbeat IPC: 1.16798 cumulative IPC: 0.87195 (Simulation time: 0 hr 6 min 39 sec) 
Heartbeat CPU  0 instructions:  199000000 cycles:  163733288 heartbeat IPC: 1.13806 cumulative IPC: 0.87402 (Simulation time: 0 hr 6 min 41 sec) 
Heartbeat CPU  0 instructions:  200000000 cycles:  164590246 heartbeat IPC: 1.16692 cumulative IPC: 0.87622 (Simulation time: 0 hr 6 min 43 sec) 
Heartbeat CPU  0 instructions:  201000002 cycles:  165433932 heartbeat IPC: 1.18528 cumulative IPC: 0.87848 (Simulation time: 0 hr 6 min 45 sec) 
Heartbeat CPU  0 instructions:  202000000 cycles:  166298013 heartbeat IPC: 1.15730 cumulative IPC: 0.88056 (Simulation time: 0 hr 6 min 47 sec) 
Heartbeat CPU  0 instructions:  203000001 cycles:  167160703 heartbeat IPC: 1.15917 cumulative IPC: 0.88262 (Simulation time: 0 hr 6 min 49 sec) 
Heartbeat CPU  0 instructions:  204000000 cycles:  168024782 heartbeat IPC: 1.15730 cumulative IPC: 0.88464 (Simulation time: 0 hr 6 min 51 sec) 
Heartbeat CPU  0 instructions:  205000002 cycles:  168886771 heartbeat IPC: 1.16011 cumulative IPC: 0.88665 (Simulation time: 0 hr 6 min 53 sec) 
Heartbeat CPU  0 instructions:  206000003 cycles:  169724434 heartbeat IPC: 1.19380 cumulative IPC: 0.88880 (Simulation time: 0 hr 6 min 56 sec) 
Heartbeat CPU  0 instructions:  207000001 cycles:  170574375 heartbeat IPC: 1.17655 cumulative IPC: 0.89084 (Simulation time: 0 hr 6 min 58 sec) 
Heartbeat CPU  0 instructions:  208000000 cycles:  171440556 heartbeat IPC: 1.15449 cumulative IPC: 0.89273 (Simulation time: 0 hr 7 min 0 sec) 
Heartbeat CPU  0 instructions:  209000001 cycles:  172305530 heartbeat IPC: 1.15611 cumulative IPC: 0.89460 (Simulation time: 0 hr 7 min 2 sec) 
Heartbeat CPU  0 instructions:  210000003 cycles:  173176456 heartbeat IPC: 1.14821 cumulative IPC: 0.89640 (Simulation time: 0 hr 7 min 4 sec) 
Heartbeat CPU  0 instructions:  211000002 cycles:  174024160 heartbeat IPC: 1.17966 cumulative IPC: 0.89834 (Simulation time: 0 hr 7 min 6 sec) 
Heartbeat CPU  0 instructions:  212000000 cycles:  174885097 heartbeat IPC: 1.16152 cumulative IPC: 0.90016 (Simulation time: 0 hr 7 min 8 sec) 
Heartbeat CPU  0 instructions:  213000003 cycles:  175746496 heartbeat IPC: 1.16091 cumulative IPC: 0.90195 (Simulation time: 0 hr 7 min 10 sec) 
Heartbeat CPU  0 instructions:  214000001 cycles:  176602609 heartbeat IPC: 1.16807 cumulative IPC: 0.90376 (Simulation time: 0 hr 7 min 12 sec) 
Heartbeat CPU  0 instructions:  215000002 cycles:  177474435 heartbeat IPC: 1.14702 cumulative IPC: 0.90543 (Simulation time: 0 hr 7 min 14 sec) 
Heartbeat CPU  0 instructions:  216000000 cycles:  178321001 heartbeat IPC: 1.18124 cumulative IPC: 0.90726 (Simulation time: 0 hr 7 min 17 sec) 
Heartbeat CPU  0 instructions:  217000002 cycles:  179175596 heartbeat IPC: 1.17015 cumulative IPC: 0.90900 (Simulation time: 0 hr 7 min 19 sec) 
Heartbeat CPU  0 instructions:  218000000 cycles:  180028647 heartbeat IPC: 1.17226 cumulative IPC: 0.91074 (Simulation time: 0 hr 7 min 21 sec) 
Heartbeat CPU  0 instructions:  219000003 cycles:  180886554 heartbeat IPC: 1.16563 cumulative IPC: 0.91241 (Simulation time: 0 hr 7 min 23 sec) 
Heartbeat CPU  0 instructions:  220000000 cycles:  181749360 heartbeat IPC: 1.15901 cumulative IPC: 0.91403 (Simulation time: 0 hr 7 min 25 sec) 
Heartbeat CPU  0 instructions:  221000002 cycles:  182608279 heartbeat IPC: 1.16426 cumulative IPC: 0.91566 (Simulation time: 0 hr 7 min 27 sec) 
Heartbeat CPU  0 instructions:  222000001 cycles:  183448470 heartbeat IPC: 1.19020 cumulative IPC: 0.91739 (Simulation time: 0 hr 7 min 29 sec) 
Heartbeat CPU  0 instructions:  223000000 cycles:  184303037 heartbeat IPC: 1.17018 cumulative IPC: 0.91901 (Simulation time: 0 hr 7 min 31 sec) 
Heartbeat CPU  0 instructions:  224000000 cycles:  185158303 heartbeat IPC: 1.16923 cumulative IPC: 0.92060 (Simulation time: 0 hr 7 min 33 sec) 
Heartbeat CPU  0 instructions:  225000001 cycles:  186013490 heartbeat IPC: 1.16934 cumulative IPC: 0.92217 (Simulation time: 0 hr 7 min 35 sec) 
Heartbeat CPU  0 instructions:  226000003 cycles:  186876649 heartbeat IPC: 1.15854 cumulative IPC: 0.92366 (Simulation time: 0 hr 7 min 37 sec) 
Heartbeat CPU  0 instructions:  227000001 cycles:  187717198 heartbeat IPC: 1.18970 cumulative IPC: 0.92529 (Simulation time: 0 hr 7 min 39 sec) 
Heartbeat CPU  0 instructions:  228000000 cycles:  188564719 heartbeat IPC: 1.17991 cumulative IPC: 0.92685 (Simulation time: 0 hr 7 min 41 sec) 
Heartbeat CPU  0 instructions:  229000002 cycles:  189420095 heartbeat IPC: 1.16908 cumulative IPC: 0.92834 (Simulation time: 0 hr 7 min 44 sec) 
Heartbeat CPU  0 instructions:  230000002 cycles:  190278565 heartbeat IPC: 1.16486 cumulative IPC: 0.92980 (Simulation time: 0 hr 7 min 46 sec) 
Heartbeat CPU  0 instructions:  231000001 cycles:  191136649 heartbeat IPC: 1.16539 cumulative IPC: 0.93123 (Simulation time: 0 hr 7 min 48 sec) 
Heartbeat CPU  0 instructions:  232000000 cycles:  191979089 heartbeat IPC: 1.18703 cumulative IPC: 0.93276 (Simulation time: 0 hr 7 min 50 sec) 
Heartbeat CPU  0 instructions:  233000000 cycles:  192823200 heartbeat IPC: 1.18468 cumulative IPC: 0.93425 (Simulation time: 0 hr 7 min 52 sec) 
Heartbeat CPU  0 instructions:  234000001 cycles:  193671273 heartbeat IPC: 1.17914 cumulative IPC: 0.93570 (Simulation time: 0 hr 7 min 54 sec) 
Heartbeat CPU  0 instructions:  235000003 cycles:  194530896 heartbeat IPC: 1.16330 cumulative IPC: 0.93706 (Simulation time: 0 hr 7 min 56 sec) 
Heartbeat CPU  0 instructions:  236000000 cycles:  195390478 heartbeat IPC: 1.16335 cumulative IPC: 0.93840 (Simulation time: 0 hr 7 min 58 sec) 
Heartbeat CPU  0 instructions:  237000000 cycles:  196233567 heartbeat IPC: 1.18611 cumulative IPC: 0.93983 (Simulation time: 0 hr 8 min 0 sec) 
Heartbeat CPU  0 instructions:  238000001 cycles:  197076851 heartbeat IPC: 1.18584 cumulative IPC: 0.94125 (Simulation time: 0 hr 8 min 2 sec) 
Heartbeat CPU  0 instructions:  239000003 cycles:  197925845 heartbeat IPC: 1.17787 cumulative IPC: 0.94261 (Simulation time: 0 hr 8 min 4 sec) 
Heartbeat CPU  0 instructions:  240000000 cycles:  198787441 heartbeat IPC: 1.16063 cumulative IPC: 0.94388 (Simulation time: 0 hr 8 min 6 sec) 
Heartbeat CPU  0 instructions:  241000000 cycles:  199648901 heartbeat IPC: 1.16082 cumulative IPC: 0.94513 (Simulation time: 0 hr 8 min 8 sec) 
Heartbeat CPU  0 instructions:  242000000 cycles:  200495142 heartbeat IPC: 1.18170 cumulative IPC: 0.94646 (Simulation time: 0 hr 8 min 11 sec) 
Heartbeat CPU  0 instructions:  243000003 cycles:  201335156 heartbeat IPC: 1.19046 cumulative IPC: 0.94782 (Simulation time: 0 hr 8 min 13 sec) 
Heartbeat CPU  0 instructions:  244000000 cycles:  202193453 heartbeat IPC: 1.16509 cumulative IPC: 0.94905 (Simulation time: 0 hr 8 min 15 sec) 
Heartbeat CPU  0 instructions:  245000000 cycles:  203045586 heartbeat IPC: 1.17353 cumulative IPC: 0.95031 (Simulation time: 0 hr 8 min 17 sec) 
Heartbeat CPU  0 instructions:  246000002 cycles:  203906869 heartbeat IPC: 1.16106 cumulative IPC: 0.95149 (Simulation time: 0 hr 8 min 19 sec) 
Heartbeat CPU  0 instructions:  247000000 cycles:  204754323 heartbeat IPC: 1.18000 cumulative IPC: 0.95274 (Simulation time: 0 hr 8 min 21 sec) 
Heartbeat CPU  0 instructions:  248000000 cycles:  205591041 heartbeat IPC: 1.19515 cumulative IPC: 0.95405 (Simulation time: 0 hr 8 min 23 sec) 
Heartbeat CPU  0 instructions:  249000000 cycles:  206449620 heartbeat IPC: 1.16472 cumulative IPC: 0.95521 (Simulation time: 0 hr 8 min 25 sec) 
Heartbeat CPU  0 instructions:  250000001 cycles:  207298195 heartbeat IPC: 1.17845 cumulative IPC: 0.95642 (Simulation time: 0 hr 8 min 27 sec) 
Heartbeat CPU  0 instructions:  251000003 cycles:  208160032 heartbeat IPC: 1.16031 cumulative IPC: 0.95753 (Simulation time: 0 hr 8 min 29 sec) 
Heartbeat CPU  0 instructions:  252000000 cycles:  209011365 heartbeat IPC: 1.17462 cumulative IPC: 0.95870 (Simulation time: 0 hr 8 min 31 sec) 
Heartbeat CPU  0 instructions:  253000000 cycles:  209855035 heartbeat IPC: 1.18530 cumulative IPC: 0.95990 (Simulation time: 0 hr 8 min 33 sec) 
Heartbeat CPU  0 instructions:  254000000 cycles:  210702965 heartbeat IPC: 1.17934 cumulative IPC: 0.96106 (Simulation time: 0 hr 8 min 35 sec) 
Heartbeat CPU  0 instructions:  255000003 cycles:  211552120 heartbeat IPC: 1.17764 cumulative IPC: 0.96220 (Simulation time: 0 hr 8 min 38 sec) 
Heartbeat CPU  0 instructions:  256000000 cycles:  212410621 heartbeat IPC: 1.16482 cumulative IPC: 0.96327 (Simulation time: 0 hr 8 min 40 sec) 
Heartbeat CPU  0 instructions:  257000003 cycles:  213268148 heartbeat IPC: 1.16615 cumulative IPC: 0.96434 (Simulation time: 0 hr 8 min 42 sec) 
Heartbeat CPU  0 instructions:  258000000 cycles:  214110946 heartbeat IPC: 1.18652 cumulative IPC: 0.96549 (Simulation time: 0 hr 8 min 44 sec) 
Heartbeat CPU  0 instructions:  259000003 cycles:  214958230 heartbeat IPC: 1.18025 cumulative IPC: 0.96659 (Simulation time: 0 hr 8 min 46 sec) 
Heartbeat CPU  0 instructions:  260000000 cycles:  215806497 heartbeat IPC: 1.17887 cumulative IPC: 0.96768 (Simulation time: 0 hr 8 min 48 sec) 
Heartbeat CPU  0 instructions:  261000001 cycles:  216663198 heartbeat IPC: 1.16727 cumulative IPC: 0.96871 (Simulation time: 0 hr 8 min 50 sec) 
Heartbeat CPU  0 instructions:  262000000 cycles:  217533726 heartbeat IPC: 1.14873 cumulative IPC: 0.96965 (Simulation time: 0 hr 8 min 52 sec) 
Heartbeat CPU  0 instructions:  263000000 cycles:  218370930 heartbeat IPC: 1.19445 cumulative IPC: 0.97077 (Simulation time: 0 hr 8 min 54 sec) 
Heartbeat CPU  0 instructions:  264000000 cycles:  219214270 heartbeat IPC: 1.18576 cumulative IPC: 0.97184 (Simulation time: 0 hr 8 min 56 sec) 
Heartbeat CPU  0 instructions:  265000002 cycles:  220066509 heartbeat IPC: 1.17338 cumulative IPC: 0.97286 (Simulation time: 0 hr 8 min 58 sec) 
Heartbeat CPU  0 instructions:  266000001 cycles:  220913411 heartbeat IPC: 1.18077 cumulative IPC: 0.97389 (Simulation time: 0 hr 9 min 0 sec) 
Heartbeat CPU  0 instructions:  267000000 cycles:  221788318 heartbeat IPC: 1.14298 cumulative IPC: 0.97475 (Simulation time: 0 hr 9 min 3 sec) 
Heartbeat CPU  0 instructions:  268000000 cycles:  222630613 heartbeat IPC: 1.18723 cumulative IPC: 0.97579 (Simulation time: 0 hr 9 min 5 sec) 
Heartbeat CPU  0 instructions:  269000003 cycles:  223472436 heartbeat IPC: 1.18790 cumulative IPC: 0.97683 (Simulation time: 0 hr 9 min 7 sec) 
Heartbeat CPU  0 instructions:  270000002 cycles:  224325945 heartbeat IPC: 1.17163 cumulative IPC: 0.97778 (Simulation time: 0 hr 9 min 9 sec) 
Heartbeat CPU  0 instructions:  271000000 cycles:  225174296 heartbeat IPC: 1.17876 cumulative IPC: 0.97876 (Simulation time: 0 hr 9 min 11 sec) 
Heartbeat CPU  0 instructions:  272000000 cycles:  226050369 heartbeat IPC: 1.14146 cumulative IPC: 0.97957 (Simulation time: 0 hr 9 min 13 sec) 
Heartbeat CPU  0 instructions:  273000002 cycles:  226896671 heartbeat IPC: 1.18161 cumulative IPC: 0.98054 (Simulation time: 0 hr 9 min 15 sec) 
Heartbeat CPU  0 instructions:  274000002 cycles:  227733346 heartbeat IPC: 1.19521 cumulative IPC: 0.98155 (Simulation time: 0 hr 9 min 17 sec) 
Heartbeat CPU  0 instructions:  275000001 cycles:  228587740 heartbeat IPC: 1.17042 cumulative IPC: 0.98246 (Simulation time: 0 hr 9 min 19 sec) 
Heartbeat CPU  0 instructions:  276000000 cycles:  229441701 heartbeat IPC: 1.17101 cumulative IPC: 0.98336 (Simulation time: 0 hr 9 min 21 sec) 
Heartbeat CPU  0 instructions:  277000003 cycles:  230308749 heartbeat IPC: 1.15334 cumulative IPC: 0.98418 (Simulation time: 0 hr 9 min 23 sec) 
Heartbeat CPU  0 instructions:  278000002 cycles:  231163951 heartbeat IPC: 1.16931 cumulative IPC: 0.98505 (Simulation time: 0 hr 9 min 25 sec) 
Heartbeat CPU  0 instructions:  279000003 cycles:  231994720 heartbeat IPC: 1.20371 cumulative IPC: 0.98605 (Simulation time: 0 hr 9 min 28 sec) 
Heartbeat CPU  0 instructions:  280000000 cycles:  232847272 heartbeat IPC: 1.17295 cumulative IPC: 0.98693 (Simulation time: 0 hr 9 min 30 sec) 
Heartbeat CPU  0 instructions:  281000002 cycles:  233706285 heartbeat IPC: 1.16413 cumulative IPC: 0.98776 (Simulation time: 0 hr 9 min 32 sec) 
Heartbeat CPU  0 instructions:  282000001 cycles:  234568143 heartbeat IPC: 1.16028 cumulative IPC: 0.98857 (Simulation time: 0 hr 9 min 34 sec) 
Heartbeat CPU  0 instructions:  283000002 cycles:  235427565 heartbeat IPC: 1.16357 cumulative IPC: 0.98938 (Simulation time: 0 hr 9 min 36 sec) 
Heartbeat CPU  0 instructions:  284000000 cycles:  236260142 heartbeat IPC: 1.20109 cumulative IPC: 0.99033 (Simulation time: 0 hr 9 min 38 sec) 
Heartbeat CPU  0 instructions:  285000002 cycles:  237116679 heartbeat IPC: 1.16749 cumulative IPC: 0.99114 (Simulation time: 0 hr 9 min 40 sec) 
Heartbeat CPU  0 instructions:  286000000 cycles:  237967439 heartbeat IPC: 1.17542 cumulative IPC: 0.99198 (Simulation time: 0 hr 9 min 42 sec) 
Heartbeat CPU  0 instructions:  287000001 cycles:  238821967 heartbeat IPC: 1.17024 cumulative IPC: 0.99279 (Simulation time: 0 hr 9 min 44 sec) 
Heartbeat CPU  0 instructions:  288000000 cycles:  239686249 heartbeat IPC: 1.15703 cumulative IPC: 0.99354 (Simulation time: 0 hr 9 min 46 sec) 
Heartbeat CPU  0 instructions:  289000000 cycles:  240522616 heartbeat IPC: 1.19565 cumulative IPC: 0.99443 (Simulation time: 0 hr 9 min 48 sec) 
Heartbeat CPU  0 instructions:  290000000 cycles:  241373345 heartbeat IPC: 1.17546 cumulative IPC: 0.99523 (Simulation time: 0 hr 9 min 50 sec) 
Heartbeat CPU  0 instructions:  291000002 cycles:  242226215 heartbeat IPC: 1.17251 cumulative IPC: 0.99602 (Simulation time: 0 hr 9 min 52 sec) 
Heartbeat CPU  0 instructions:  292000000 cycles:  243078982 heartbeat IPC: 1.17265 cumulative IPC: 0.99680 (Simulation time: 0 hr 9 min 55 sec) 
Heartbeat CPU  0 instructions:  293000001 cycles:  243945770 heartbeat IPC: 1.15369 cumulative IPC: 0.99751 (Simulation time: 0 hr 9 min 57 sec) 
Heartbeat CPU  0 instructions:  294000002 cycles:  244796924 heartbeat IPC: 1.17488 cumulative IPC: 0.99828 (Simulation time: 0 hr 9 min 59 sec) 
Heartbeat CPU  0 instructions:  295000003 cycles:  245637891 heartbeat IPC: 1.18911 cumulative IPC: 0.99910 (Simulation time: 0 hr 10 min 1 sec) 
Heartbeat CPU  0 instructions:  296000000 cycles:  246489888 heartbeat IPC: 1.17371 cumulative IPC: 0.99986 (Simulation time: 0 hr 10 min 3 sec) 
Heartbeat CPU  0 instructions:  297000001 cycles:  247341714 heartbeat IPC: 1.17395 cumulative IPC: 1.00062 (Simulation time: 0 hr 10 min 5 sec) 
Heartbeat CPU  0 instructions:  298000002 cycles:  248203772 heartbeat IPC: 1.16002 cumulative IPC: 1.00131 (Simulation time: 0 hr 10 min 7 sec) 
Heartbeat CPU  0 instructions:  299000003 cycles:  249058247 heartbeat IPC: 1.17031 cumulative IPC: 1.00204 (Simulation time: 0 hr 10 min 9 sec) 
Heartbeat CPU  0 instructions:  300000000 cycles:  249896886 heartbeat IPC: 1.19240 cumulative IPC: 1.00284 (Simulation time: 0 hr 10 min 11 sec) 
Heartbeat CPU  0 instructions:  301000000 cycles:  250745540 heartbeat IPC: 1.17834 cumulative IPC: 1.00358 (Simulation time: 0 hr 10 min 13 sec) 
Heartbeat CPU  0 instructions:  302000003 cycles:  251597500 heartbeat IPC: 1.17377 cumulative IPC: 1.00430 (Simulation time: 0 hr 10 min 15 sec) 
Heartbeat CPU  0 instructions:  303000002 cycles:  252461954 heartbeat IPC: 1.15680 cumulative IPC: 1.00496 (Simulation time: 0 hr 10 min 18 sec) 
Heartbeat CPU  0 instructions:  304000000 cycles:  253317671 heartbeat IPC: 1.16861 cumulative IPC: 1.00565 (Simulation time: 0 hr 10 min 20 sec) 
Heartbeat CPU  0 instructions:  305000001 cycles:  254155767 heartbeat IPC: 1.19318 cumulative IPC: 1.00642 (Simulation time: 0 hr 10 min 22 sec) 
Heartbeat CPU  0 instructions:  306000003 cycles:  254999687 heartbeat IPC: 1.18495 cumulative IPC: 1.00715 (Simulation time: 0 hr 10 min 24 sec) 
Heartbeat CPU  0 instructions:  307000000 cycles:  255851486 heartbeat IPC: 1.17398 cumulative IPC: 1.00785 (Simulation time: 0 hr 10 min 26 sec) 
Heartbeat CPU  0 instructions:  308000000 cycles:  256714908 heartbeat IPC: 1.15818 cumulative IPC: 1.00848 (Simulation time: 0 hr 10 min 28 sec) 
Heartbeat CPU  0 instructions:  309000000 cycles:  257572916 heartbeat IPC: 1.16549 cumulative IPC: 1.00913 (Simulation time: 0 hr 10 min 30 sec) 
Heartbeat CPU  0 instructions:  310000003 cycles:  258414512 heartbeat IPC: 1.18822 cumulative IPC: 1.00985 (Simulation time: 0 hr 10 min 32 sec) 
Heartbeat CPU  0 instructions:  311000001 cycles:  259255307 heartbeat IPC: 1.18935 cumulative IPC: 1.01057 (Simulation time: 0 hr 10 min 34 sec) 
Heartbeat CPU  0 instructions:  312000000 cycles:  260108323 heartbeat IPC: 1.17231 cumulative IPC: 1.01123 (Simulation time: 0 hr 10 min 36 sec) 
Heartbeat CPU  0 instructions:  313000001 cycles:  260967946 heartbeat IPC: 1.16330 cumulative IPC: 1.01185 (Simulation time: 0 hr 10 min 38 sec) 
Heartbeat CPU  0 instructions:  314000000 cycles:  261828004 heartbeat IPC: 1.16271 cumulative IPC: 1.01247 (Simulation time: 0 hr 10 min 40 sec) 
Heartbeat CPU  0 instructions:  315000000 cycles:  262672475 heartbeat IPC: 1.18417 cumulative IPC: 1.01315 (Simulation time: 0 hr 10 min 42 sec) 
Heartbeat CPU  0 instructions:  316000000 cycles:  263511209 heartbeat IPC: 1.19227 cumulative IPC: 1.01386 (Simulation time: 0 hr 10 min 45 sec) 
Heartbeat CPU  0 instructions:  317000000 cycles:  264368499 heartbeat IPC: 1.16647 cumulative IPC: 1.01447 (Simulation time: 0 hr 10 min 47 sec) 
Heartbeat CPU  0 instructions:  318000000 cycles:  265219880 heartbeat IPC: 1.17456 cumulative IPC: 1.01510 (Simulation time: 0 hr 10 min 49 sec) 
Heartbeat CPU  0 instructions:  319000001 cycles:  266079537 heartbeat IPC: 1.16326 cumulative IPC: 1.01569 (Simulation time: 0 hr 10 min 51 sec) 
Heartbeat CPU  0 instructions:  320000000 cycles:  266926696 heartbeat IPC: 1.18041 cumulative IPC: 1.01634 (Simulation time: 0 hr 10 min 53 sec) 
Heartbeat CPU  0 instructions:  321000003 cycles:  267766365 heartbeat IPC: 1.19095 cumulative IPC: 1.01701 (Simulation time: 0 hr 10 min 55 sec) 
Heartbeat CPU  0 instructions:  322000003 cycles:  268623448 heartbeat IPC: 1.16675 cumulative IPC: 1.01760 (Simulation time: 0 hr 10 min 57 sec) 
Heartbeat CPU  0 instructions:  323000003 cycles:  269473788 heartbeat IPC: 1.17600 cumulative IPC: 1.01822 (Simulation time: 0 hr 10 min 59 sec) 
Heartbeat CPU  0 instructions:  324000000 cycles:  270333901 heartbeat IPC: 1.16263 cumulative IPC: 1.01878 (Simulation time: 0 hr 11 min 1 sec) 
Heartbeat CPU  0 instructions:  325000000 cycles:  271183002 heartbeat IPC: 1.17772 cumulative IPC: 1.01939 (Simulation time: 0 hr 11 min 3 sec) 
Heartbeat CPU  0 instructions:  326000001 cycles:  272029352 heartbeat IPC: 1.18155 cumulative IPC: 1.02001 (Simulation time: 0 hr 11 min 5 sec) 
Heartbeat CPU  0 instructions:  327000001 cycles:  272876936 heartbeat IPC: 1.17982 cumulative IPC: 1.02062 (Simulation time: 0 hr 11 min 7 sec) 
Heartbeat CPU  0 instructions:  328000000 cycles:  273726090 heartbeat IPC: 1.17764 cumulative IPC: 1.02122 (Simulation time: 0 hr 11 min 10 sec) 
Heartbeat CPU  0 instructions:  329000000 cycles:  274584981 heartbeat IPC: 1.16429 cumulative IPC: 1.02177 (Simulation time: 0 hr 11 min 12 sec) 
Heartbeat CPU  0 instructions:  330000000 cycles:  275440671 heartbeat IPC: 1.16865 cumulative IPC: 1.02232 (Simulation time: 0 hr 11 min 14 sec) 
Heartbeat CPU  0 instructions:  331000003 cycles:  276281684 heartbeat IPC: 1.18905 cumulative IPC: 1.02294 (Simulation time: 0 hr 11 min 16 sec) 
Heartbeat CPU  0 instructions:  332000000 cycles:  277128238 heartbeat IPC: 1.18126 cumulative IPC: 1.02354 (Simulation time: 0 hr 11 min 18 sec) 
Heartbeat CPU  0 instructions:  333000002 cycles:  277975265 heartbeat IPC: 1.18060 cumulative IPC: 1.02412 (Simulation time: 0 hr 11 min 20 sec) 
Heartbeat CPU  0 instructions:  334000003 cycles:  278832074 heartbeat IPC: 1.16712 cumulative IPC: 1.02466 (Simulation time: 0 hr 11 min 22 sec) 
Heartbeat CPU  0 instructions:  335000000 cycles:  279699101 heartbeat IPC: 1.15336 cumulative IPC: 1.02514 (Simulation time: 0 hr 11 min 24 sec) 
Heartbeat CPU  0 instructions:  336000000 cycles:  280537195 heartbeat IPC: 1.19318 cumulative IPC: 1.02576 (Simulation time: 0 hr 11 min 26 sec) 
Heartbeat CPU  0 instructions:  337000001 cycles:  281381997 heartbeat IPC: 1.18371 cumulative IPC: 1.02633 (Simulation time: 0 hr 11 min 28 sec) 
Heartbeat CPU  0 instructions:  338000003 cycles:  282230152 heartbeat IPC: 1.17903 cumulative IPC: 1.02689 (Simulation time: 0 hr 11 min 30 sec) 
Heartbeat CPU  0 instructions:  339000000 cycles:  283083652 heartbeat IPC: 1.17164 cumulative IPC: 1.02742 (Simulation time: 0 hr 11 min 32 sec) 
Heartbeat CPU  0 instructions:  340000000 cycles:  283954204 heartbeat IPC: 1.14870 cumulative IPC: 1.02788 (Simulation time: 0 hr 11 min 34 sec) 
Heartbeat CPU  0 instructions:  341000002 cycles:  284795337 heartbeat IPC: 1.18887 cumulative IPC: 1.02845 (Simulation time: 0 hr 11 min 37 sec) 
Heartbeat CPU  0 instructions:  342000001 cycles:  285640449 heartbeat IPC: 1.18327 cumulative IPC: 1.02901 (Simulation time: 0 hr 11 min 39 sec) 
Heartbeat CPU  0 instructions:  343000001 cycles:  286489247 heartbeat IPC: 1.17814 cumulative IPC: 1.02955 (Simulation time: 0 hr 11 min 41 sec) 
Heartbeat CPU  0 instructions:  344000000 cycles:  287341788 heartbeat IPC: 1.17296 cumulative IPC: 1.03006 (Simulation time: 0 hr 11 min 43 sec) 
Heartbeat CPU  0 instructions:  345000001 cycles:  288210629 heartbeat IPC: 1.15096 cumulative IPC: 1.03050 (Simulation time: 0 hr 11 min 45 sec) 
Heartbeat CPU  0 instructions:  346000001 cycles:  289059091 heartbeat IPC: 1.17860 cumulative IPC: 1.03103 (Simulation time: 0 hr 11 min 47 sec) 
Heartbeat CPU  0 instructions:  347000003 cycles:  289982582 heartbeat IPC: 1.08285 cumulative IPC: 1.03123 (Simulation time: 0 hr 11 min 49 sec) 
Heartbeat CPU  0 instructions:  348000000 cycles:  291046109 heartbeat IPC: 0.94026 cumulative IPC: 1.03083 (Simulation time: 0 hr 11 min 51 sec) 
Heartbeat CPU  0 instructions:  349000002 cycles:  292113805 heartbeat IPC: 0.93660 cumulative IPC: 1.03041 (Simulation time: 0 hr 11 min 53 sec) 
Heartbeat CPU  0 instructions:  350000000 cycles:  293255117 heartbeat IPC: 0.87618 cumulative IPC: 1.02969 (Simulation time: 0 hr 11 min 56 sec) 
Heartbeat CPU  0 instructions:  351000002 cycles:  294317305 heartbeat IPC: 0.94145 cumulative IPC: 1.02930 (Simulation time: 0 hr 11 min 58 sec) 
Heartbeat CPU  0 instructions:  352000000 cycles:  295381703 heartbeat IPC: 0.93950 cumulative IPC: 1.02891 (Simulation time: 0 hr 12 min 0 sec) 
Heartbeat CPU  0 instructions:  353000000 cycles:  296485756 heartbeat IPC: 0.90575 cumulative IPC: 1.02836 (Simulation time: 0 hr 12 min 2 sec) 
Heartbeat CPU  0 instructions:  354000000 cycles:  297576942 heartbeat IPC: 0.91643 cumulative IPC: 1.02787 (Simulation time: 0 hr 12 min 4 sec) 
Heartbeat CPU  0 instructions:  355000003 cycles:  298646796 heartbeat IPC: 0.93471 cumulative IPC: 1.02746 (Simulation time: 0 hr 12 min 6 sec) 
Heartbeat CPU  0 instructions:  356000000 cycles:  299715231 heartbeat IPC: 0.93595 cumulative IPC: 1.02707 (Simulation time: 0 hr 12 min 9 sec) 
Heartbeat CPU  0 instructions:  357000000 cycles:  300818621 heartbeat IPC: 0.90630 cumulative IPC: 1.02654 (Simulation time: 0 hr 12 min 11 sec) 
Heartbeat CPU  0 instructions:  358000000 cycles:  301885912 heartbeat IPC: 0.93695 cumulative IPC: 1.02616 (Simulation time: 0 hr 12 min 13 sec) 
Heartbeat CPU  0 instructions:  359000000 cycles:  302951954 heartbeat IPC: 0.93805 cumulative IPC: 1.02579 (Simulation time: 0 hr 12 min 15 sec) 
Heartbeat CPU  0 instructions:  360000000 cycles:  304028380 heartbeat IPC: 0.92900 cumulative IPC: 1.02538 (Simulation time: 0 hr 12 min 17 sec) 
Heartbeat CPU  0 instructions:  361000000 cycles:  305096721 heartbeat IPC: 0.93603 cumulative IPC: 1.02500 (Simulation time: 0 hr 12 min 20 sec) 
Heartbeat CPU  0 instructions:  362000001 cycles:  306163815 heartbeat IPC: 0.93713 cumulative IPC: 1.02464 (Simulation time: 0 hr 12 min 22 sec) 
Heartbeat CPU  0 instructions:  363000003 cycles:  307238101 heartbeat IPC: 0.93085 cumulative IPC: 1.02424 (Simulation time: 0 hr 12 min 24 sec) 
Heartbeat CPU  0 instructions:  364000000 cycles:  308309267 heartbeat IPC: 0.93356 cumulative IPC: 1.02387 (Simulation time: 0 hr 12 min 26 sec) 
Heartbeat CPU  0 instructions:  365000000 cycles:  309379996 heartbeat IPC: 0.93394 cumulative IPC: 1.02349 (Simulation time: 0 hr 12 min 28 sec) 
Heartbeat CPU  0 instructions:  366000000 cycles:  310452833 heartbeat IPC: 0.93211 cumulative IPC: 1.02312 (Simulation time: 0 hr 12 min 31 sec) 
Heartbeat CPU  0 instructions:  367000001 cycles:  311523954 heartbeat IPC: 0.93360 cumulative IPC: 1.02275 (Simulation time: 0 hr 12 min 33 sec) 
Heartbeat CPU  0 instructions:  368000000 cycles:  312594119 heartbeat IPC: 0.93443 cumulative IPC: 1.02239 (Simulation time: 0 hr 12 min 35 sec) 
Heartbeat CPU  0 instructions:  369000000 cycles:  313666788 heartbeat IPC: 0.93225 cumulative IPC: 1.02202 (Simulation time: 0 hr 12 min 37 sec) 
Heartbeat CPU  0 instructions:  370000002 cycles:  314742019 heartbeat IPC: 0.93003 cumulative IPC: 1.02165 (Simulation time: 0 hr 12 min 39 sec) 
Heartbeat CPU  0 instructions:  371000002 cycles:  315813173 heartbeat IPC: 0.93357 cumulative IPC: 1.02129 (Simulation time: 0 hr 12 min 41 sec) 
Heartbeat CPU  0 instructions:  372000000 cycles:  316884383 heartbeat IPC: 0.93352 cumulative IPC: 1.02094 (Simulation time: 0 hr 12 min 44 sec) 
Heartbeat CPU  0 instructions:  373000002 cycles:  317959362 heartbeat IPC: 0.93025 cumulative IPC: 1.02057 (Simulation time: 0 hr 12 min 46 sec) 
Heartbeat CPU  0 instructions:  374000003 cycles:  319031570 heartbeat IPC: 0.93266 cumulative IPC: 1.02022 (Simulation time: 0 hr 12 min 48 sec) 
Heartbeat CPU  0 instructions:  375000003 cycles:  320103337 heartbeat IPC: 0.93304 cumulative IPC: 1.01988 (Simulation time: 0 hr 12 min 50 sec) 
Heartbeat CPU  0 instructions:  376000000 cycles:  321173009 heartbeat IPC: 0.93486 cumulative IPC: 1.01954 (Simulation time: 0 hr 12 min 52 sec) 
Heartbeat CPU  0 instructions:  377000003 cycles:  322243731 heartbeat IPC: 0.93395 cumulative IPC: 1.01920 (Simulation time: 0 hr 12 min 55 sec) 
Heartbeat CPU  0 instructions:  378000003 cycles:  323310078 heartbeat IPC: 0.93778 cumulative IPC: 1.01889 (Simulation time: 0 hr 12 min 57 sec) 
Heartbeat CPU  0 instructions:  379000003 cycles:  324380328 heartbeat IPC: 0.93436 cumulative IPC: 1.01856 (Simulation time: 0 hr 12 min 59 sec) 
Heartbeat CPU  0 instructions:  380000000 cycles:  325449441 heartbeat IPC: 0.93535 cumulative IPC: 1.01823 (Simulation time: 0 hr 13 min 1 sec) 
Heartbeat CPU  0 instructions:  381000002 cycles:  326522680 heartbeat IPC: 0.93176 cumulative IPC: 1.01790 (Simulation time: 0 hr 13 min 3 sec) 
Heartbeat CPU  0 instructions:  382000001 cycles:  327588018 heartbeat IPC: 0.93867 cumulative IPC: 1.01759 (Simulation time: 0 hr 13 min 6 sec) 
Heartbeat CPU  0 instructions:  383000000 cycles:  328665684 heartbeat IPC: 0.92793 cumulative IPC: 1.01724 (Simulation time: 0 hr 13 min 8 sec) 
Heartbeat CPU  0 instructions:  384000000 cycles:  329737636 heartbeat IPC: 0.93288 cumulative IPC: 1.01692 (Simulation time: 0 hr 13 min 10 sec) 
Heartbeat CPU  0 instructions:  385000000 cycles:  330804488 heartbeat IPC: 0.93734 cumulative IPC: 1.01662 (Simulation time: 0 hr 13 min 12 sec) 
Heartbeat CPU  0 instructions:  386000001 cycles:  331882792 heartbeat IPC: 0.92738 cumulative IPC: 1.01628 (Simulation time: 0 hr 13 min 14 sec) 
Heartbeat CPU  0 instructions:  387000003 cycles:  332952428 heartbeat IPC: 0.93490 cumulative IPC: 1.01597 (Simulation time: 0 hr 13 min 16 sec) 
Heartbeat CPU  0 instructions:  388000000 cycles:  334016751 heartbeat IPC: 0.93956 cumulative IPC: 1.01568 (Simulation time: 0 hr 13 min 19 sec) 
Heartbeat CPU  0 instructions:  389000001 cycles:  335092667 heartbeat IPC: 0.92944 cumulative IPC: 1.01535 (Simulation time: 0 hr 13 min 21 sec) 
Heartbeat CPU  0 instructions:  390000000 cycles:  336162876 heartbeat IPC: 0.93440 cumulative IPC: 1.01505 (Simulation time: 0 hr 13 min 23 sec) 
Heartbeat CPU  0 instructions:  391000000 cycles:  337225639 heartbeat IPC: 0.94094 cumulative IPC: 1.01478 (Simulation time: 0 hr 13 min 25 sec) 
Heartbeat CPU  0 instructions:  392000000 cycles:  338341519 heartbeat IPC: 0.89615 cumulative IPC: 1.01432 (Simulation time: 0 hr 13 min 27 sec) 
Heartbeat CPU  0 instructions:  393000002 cycles:  339961901 heartbeat IPC: 0.61714 cumulative IPC: 1.01209 (Simulation time: 0 hr 13 min 30 sec) 
Heartbeat CPU  0 instructions:  394000001 cycles:  343090504 heartbeat IPC: 0.31963 cumulative IPC: 1.00469 (Simulation time: 0 hr 13 min 34 sec) 
Heartbeat CPU  0 instructions:  395000000 cycles:  345191249 heartbeat IPC: 0.47602 cumulative IPC: 1.00092 (Simulation time: 0 hr 13 min 36 sec) 
Heartbeat CPU  0 instructions:  396000000 cycles:  345922767 heartbeat IPC: 1.36702 cumulative IPC: 1.00183 (Simulation time: 0 hr 13 min 38 sec) 
Heartbeat CPU  0 instructions:  397000000 cycles:  346654168 heartbeat IPC: 1.36724 cumulative IPC: 1.00273 (Simulation time: 0 hr 13 min 41 sec) 
Heartbeat CPU  0 instructions:  398000001 cycles:  347388047 heartbeat IPC: 1.36262 cumulative IPC: 1.00362 (Simulation time: 0 hr 13 min 43 sec) 
Heartbeat CPU  0 instructions:  399000002 cycles:  348130378 heartbeat IPC: 1.34711 cumulative IPC: 1.00448 (Simulation time: 0 hr 13 min 45 sec) 
Heartbeat CPU  0 instructions:  400000000 cycles:  348863413 heartbeat IPC: 1.36419 cumulative IPC: 1.00536 (Simulation time: 0 hr 13 min 47 sec) 
Heartbeat CPU  0 instructions:  401000003 cycles:  349599031 heartbeat IPC: 1.35941 cumulative IPC: 1.00623 (Simulation time: 0 hr 13 min 49 sec) 
Heartbeat CPU  0 instructions:  402000002 cycles:  350368458 heartbeat IPC: 1.29967 cumulative IPC: 1.00698 (Simulation time: 0 hr 13 min 51 sec) 
Heartbeat CPU  0 instructions:  403000002 cycles:  351157047 heartbeat IPC: 1.26809 cumulative IPC: 1.00767 (Simulation time: 0 hr 13 min 53 sec) 
Heartbeat CPU  0 instructions:  404000000 cycles:  351941877 heartbeat IPC: 1.27416 cumulative IPC: 1.00836 (Simulation time: 0 hr 13 min 55 sec) 
Heartbeat CPU  0 instructions:  405000000 cycles:  352728322 heartbeat IPC: 1.27154 cumulative IPC: 1.00905 (Simulation time: 0 hr 13 min 57 sec) 
Heartbeat CPU  0 instructions:  406000000 cycles:  353513601 heartbeat IPC: 1.27343 cumulative IPC: 1.00973 (Simulation time: 0 hr 14 min 0 sec) 
Heartbeat CPU  0 instructions:  407000000 cycles:  354301334 heartbeat IPC: 1.26947 cumulative IPC: 1.01041 (Simulation time: 0 hr 14 min 2 sec) 
Heartbeat CPU  0 instructions:  408000000 cycles:  355175818 heartbeat IPC: 1.14353 cumulative IPC: 1.01079 (Simulation time: 0 hr 14 min 4 sec) 
Heartbeat CPU  0 instructions:  409000001 cycles:  356290320 heartbeat IPC: 0.89726 cumulative IPC: 1.01037 (Simulation time: 0 hr 14 min 6 sec) 
Heartbeat CPU  0 instructions:  410000003 cycles:  357366862 heartbeat IPC: 0.92890 cumulative IPC: 1.01009 (Simulation time: 0 hr 14 min 8 sec) 
Heartbeat CPU  0 instructions:  411000002 cycles:  358489585 heartbeat IPC: 0.89069 cumulative IPC: 1.00965 (Simulation time: 0 hr 14 min 10 sec) 
Heartbeat CPU  0 instructions:  412000000 cycles:  359308819 heartbeat IPC: 1.22065 cumulative IPC: 1.01021 (Simulation time: 0 hr 14 min 12 sec) 
Heartbeat CPU  0 instructions:  413000003 cycles:  360150280 heartbeat IPC: 1.18841 cumulative IPC: 1.01070 (Simulation time: 0 hr 14 min 14 sec) 
Heartbeat CPU  0 instructions:  414000002 cycles:  361024520 heartbeat IPC: 1.14385 cumulative IPC: 1.01107 (Simulation time: 0 hr 14 min 16 sec) 
Heartbeat CPU  0 instructions:  415000002 cycles:  361947911 heartbeat IPC: 1.08296 cumulative IPC: 1.01129 (Simulation time: 0 hr 14 min 18 sec) 
Heartbeat CPU  0 instructions:  416000000 cycles:  362816024 heartbeat IPC: 1.15192 cumulative IPC: 1.01168 (Simulation time: 0 hr 14 min 20 sec) 
Heartbeat CPU  0 instructions:  417000000 cycles:  363698693 heartbeat IPC: 1.13293 cumulative IPC: 1.01202 (Simulation time: 0 hr 14 min 22 sec) 
Heartbeat CPU  0 instructions:  418000001 cycles:  364582875 heartbeat IPC: 1.13099 cumulative IPC: 1.01235 (Simulation time: 0 hr 14 min 25 sec) 
Heartbeat CPU  0 instructions:  419000003 cycles:  365471668 heartbeat IPC: 1.12512 cumulative IPC: 1.01267 (Simulation time: 0 hr 14 min 27 sec) 
Heartbeat CPU  0 instructions:  420000000 cycles:  366327039 heartbeat IPC: 1.16908 cumulative IPC: 1.01309 (Simulation time: 0 hr 14 min 29 sec) 
Heartbeat CPU  0 instructions:  421000001 cycles:  367195647 heartbeat IPC: 1.15127 cumulative IPC: 1.01347 (Simulation time: 0 hr 14 min 31 sec) 
Heartbeat CPU  0 instructions:  422000000 cycles:  368067832 heartbeat IPC: 1.14654 cumulative IPC: 1.01384 (Simulation time: 0 hr 14 min 33 sec) 
Heartbeat CPU  0 instructions:  423000002 cycles:  368938871 heartbeat IPC: 1.14806 cumulative IPC: 1.01421 (Simulation time: 0 hr 14 min 35 sec) 
Heartbeat CPU  0 instructions:  424000000 cycles:  369773024 heartbeat IPC: 1.19882 cumulative IPC: 1.01469 (Simulation time: 0 hr 14 min 37 sec) 
Heartbeat CPU  0 instructions:  425000000 cycles:  370586713 heartbeat IPC: 1.22897 cumulative IPC: 1.01523 (Simulation time: 0 hr 14 min 39 sec) 
Heartbeat CPU  0 instructions:  426000003 cycles:  371398484 heartbeat IPC: 1.23188 cumulative IPC: 1.01578 (Simulation time: 0 hr 14 min 41 sec) 
Heartbeat CPU  0 instructions:  427000003 cycles:  372259397 heartbeat IPC: 1.16156 cumulative IPC: 1.01617 (Simulation time: 0 hr 14 min 43 sec) 
Heartbeat CPU  0 instructions:  428000000 cycles:  373320692 heartbeat IPC: 0.94224 cumulative IPC: 1.01593 (Simulation time: 0 hr 14 min 45 sec) 
Heartbeat CPU  0 instructions:  429000002 cycles:  374157967 heartbeat IPC: 1.19435 cumulative IPC: 1.01639 (Simulation time: 0 hr 14 min 47 sec) 
Heartbeat CPU  0 instructions:  430000002 cycles:  374969122 heartbeat IPC: 1.23281 cumulative IPC: 1.01693 (Simulation time: 0 hr 14 min 49 sec) 
Heartbeat CPU  0 instructions:  431000003 cycles:  375781537 heartbeat IPC: 1.23090 cumulative IPC: 1.01746 (Simulation time: 0 hr 14 min 51 sec) 
Heartbeat CPU  0 instructions:  432000000 cycles:  376592718 heartbeat IPC: 1.23277 cumulative IPC: 1.01800 (Simulation time: 0 hr 14 min 53 sec) 
Heartbeat CPU  0 instructions:  433000001 cycles:  377405052 heartbeat IPC: 1.23102 cumulative IPC: 1.01853 (Simulation time: 0 hr 14 min 55 sec) 
Heartbeat CPU  0 instructions:  434000001 cycles:  378216686 heartbeat IPC: 1.23208 cumulative IPC: 1.01906 (Simulation time: 0 hr 14 min 57 sec) 
Heartbeat CPU  0 instructions:  435000003 cycles:  379027805 heartbeat IPC: 1.23287 cumulative IPC: 1.01959 (Simulation time: 0 hr 15 min 0 sec) 
Heartbeat CPU  0 instructions:  436000000 cycles:  379838145 heartbeat IPC: 1.23405 cumulative IPC: 1.02011 (Simulation time: 0 hr 15 min 2 sec) 
Heartbeat CPU  0 instructions:  437000002 cycles:  380776888 heartbeat IPC: 1.06526 cumulative IPC: 1.02024 (Simulation time: 0 hr 15 min 4 sec) 
Heartbeat CPU  0 instructions:  438000000 cycles:  381739505 heartbeat IPC: 1.03883 cumulative IPC: 1.02030 (Simulation time: 0 hr 15 min 6 sec) 
Heartbeat CPU  0 instructions:  439000003 cycles:  382550690 heartbeat IPC: 1.23277 cumulative IPC: 1.02081 (Simulation time: 0 hr 15 min 8 sec) 
Heartbeat CPU  0 instructions:  440000000 cycles:  383361680 heartbeat IPC: 1.23306 cumulative IPC: 1.02133 (Simulation time: 0 hr 15 min 10 sec) 
Heartbeat CPU  0 instructions:  441000000 cycles:  384201072 heartbeat IPC: 1.19134 cumulative IPC: 1.02176 (Simulation time: 0 hr 15 min 12 sec) 
Heartbeat CPU  0 instructions:  442000003 cycles:  385036397 heartbeat IPC: 1.19714 cumulative IPC: 1.02220 (Simulation time: 0 hr 15 min 14 sec) 
Heartbeat CPU  0 instructions:  443000002 cycles:  385870654 heartbeat IPC: 1.19867 cumulative IPC: 1.02264 (Simulation time: 0 hr 15 min 16 sec) 
Heartbeat CPU  0 instructions:  444000000 cycles:  386683002 heartbeat IPC: 1.23100 cumulative IPC: 1.02314 (Simulation time: 0 hr 15 min 18 sec) 
Heartbeat CPU  0 instructions:  445000003 cycles:  387493152 heartbeat IPC: 1.23434 cumulative IPC: 1.02365 (Simulation time: 0 hr 15 min 20 sec) 
Heartbeat CPU  0 instructions:  446000002 cycles:  388304354 heartbeat IPC: 1.23274 cumulative IPC: 1.02415 (Simulation time: 0 hr 15 min 22 sec) 
Heartbeat CPU  0 instructions:  447000000 cycles:  389117266 heartbeat IPC: 1.23014 cumulative IPC: 1.02464 (Simulation time: 0 hr 15 min 24 sec) 
Heartbeat CPU  0 instructions:  448000000 cycles:  389928685 heartbeat IPC: 1.23241 cumulative IPC: 1.02514 (Simulation time: 0 hr 15 min 26 sec) 
Heartbeat CPU  0 instructions:  449000003 cycles:  390740076 heartbeat IPC: 1.23246 cumulative IPC: 1.02564 (Simulation time: 0 hr 15 min 28 sec) 
Heartbeat CPU  0 instructions:  450000001 cycles:  391551726 heartbeat IPC: 1.23206 cumulative IPC: 1.02613 (Simulation time: 0 hr 15 min 30 sec) 
Heartbeat CPU  0 instructions:  451000003 cycles:  392418385 heartbeat IPC: 1.15386 cumulative IPC: 1.02645 (Simulation time: 0 hr 15 min 32 sec) 
Heartbeat CPU  0 instructions:  452000000 cycles:  393290728 heartbeat IPC: 1.14633 cumulative IPC: 1.02675 (Simulation time: 0 hr 15 min 34 sec) 
Heartbeat CPU  0 instructions:  453000000 cycles:  394102273 heartbeat IPC: 1.23222 cumulative IPC: 1.02724 (Simulation time: 0 hr 15 min 36 sec) 
Heartbeat CPU  0 instructions:  454000000 cycles:  394913379 heartbeat IPC: 1.23288 cumulative IPC: 1.02772 (Simulation time: 0 hr 15 min 38 sec) 
Heartbeat CPU  0 instructions:  455000002 cycles:  395724388 heartbeat IPC: 1.23303 cumulative IPC: 1.02821 (Simulation time: 0 hr 15 min 40 sec) 
Heartbeat CPU  0 instructions:  456000000 cycles:  396575858 heartbeat IPC: 1.17444 cumulative IPC: 1.02857 (Simulation time: 0 hr 15 min 42 sec) 
Heartbeat CPU  0 instructions:  457000000 cycles:  397414890 heartbeat IPC: 1.19185 cumulative IPC: 1.02896 (Simulation time: 0 hr 15 min 44 sec) 
Heartbeat CPU  0 instructions:  458000002 cycles:  398225584 heartbeat IPC: 1.23351 cumulative IPC: 1.02944 (Simulation time: 0 hr 15 min 46 sec) 
Heartbeat CPU  0 instructions:  459000001 cycles:  399037924 heartbeat IPC: 1.23101 cumulative IPC: 1.02991 (Simulation time: 0 hr 15 min 48 sec) 
Heartbeat CPU  0 instructions:  460000000 cycles:  399848413 heartbeat IPC: 1.23382 cumulative IPC: 1.03038 (Simulation time: 0 hr 15 min 50 sec) 
Heartbeat CPU  0 instructions:  461000003 cycles:  400658931 heartbeat IPC: 1.23378 cumulative IPC: 1.03085 (Simulation time: 0 hr 15 min 52 sec) 
Heartbeat CPU  0 instructions:  462000002 cycles:  401471234 heartbeat IPC: 1.23107 cumulative IPC: 1.03132 (Simulation time: 0 hr 15 min 55 sec) 
Heartbeat CPU  0 instructions:  463000002 cycles:  402282939 heartbeat IPC: 1.23197 cumulative IPC: 1.03178 (Simulation time: 0 hr 15 min 57 sec) 
Heartbeat CPU  0 instructions:  464000000 cycles:  403094185 heartbeat IPC: 1.23267 cumulative IPC: 1.03224 (Simulation time: 0 hr 15 min 59 sec) 
Heartbeat CPU  0 instructions:  465000001 cycles:  403907411 heartbeat IPC: 1.22967 cumulative IPC: 1.03269 (Simulation time: 0 hr 16 min 1 sec) 
Heartbeat CPU  0 instructions:  466000001 cycles:  404717921 heartbeat IPC: 1.23379 cumulative IPC: 1.03315 (Simulation time: 0 hr 16 min 3 sec) 
Heartbeat CPU  0 instructions:  467000001 cycles:  405528970 heartbeat IPC: 1.23297 cumulative IPC: 1.03361 (Simulation time: 0 hr 16 min 5 sec) 
Heartbeat CPU  0 instructions:  468000000 cycles:  406340036 heartbeat IPC: 1.23294 cumulative IPC: 1.03407 (Simulation time: 0 hr 16 min 7 sec) 
Heartbeat CPU  0 instructions:  469000000 cycles:  407151360 heartbeat IPC: 1.23255 cumulative IPC: 1.03452 (Simulation time: 0 hr 16 min 9 sec) 
Heartbeat CPU  0 instructions:  470000003 cycles:  407961438 heartbeat IPC: 1.23445 cumulative IPC: 1.03497 (Simulation time: 0 hr 16 min 11 sec) 
Heartbeat CPU  0 instructions:  471000002 cycles:  408772292 heartbeat IPC: 1.23327 cumulative IPC: 1.03542 (Simulation time: 0 hr 16 min 13 sec) 
Heartbeat CPU  0 instructions:  472000000 cycles:  409584480 heartbeat IPC: 1.23124 cumulative IPC: 1.03586 (Simulation time: 0 hr 16 min 15 sec) 
Heartbeat CPU  0 instructions:  473000001 cycles:  410396250 heartbeat IPC: 1.23188 cumulative IPC: 1.03630 (Simulation time: 0 hr 16 min 17 sec) 
Heartbeat CPU  0 instructions:  474000002 cycles:  411206955 heartbeat IPC: 1.23350 cumulative IPC: 1.03675 (Simulation time: 0 hr 16 min 19 sec) 
Heartbeat CPU  0 instructions:  475000003 cycles:  412019014 heartbeat IPC: 1.23144 cumulative IPC: 1.03718 (Simulation time: 0 hr 16 min 21 sec) 
Heartbeat CPU  0 instructions:  476000000 cycles:  412829470 heartbeat IPC: 1.23387 cumulative IPC: 1.03762 (Simulation time: 0 hr 16 min 23 sec) 
Heartbeat CPU  0 instructions:  477000002 cycles:  413640475 heartbeat IPC: 1.23304 cumulative IPC: 1.03806 (Simulation time: 0 hr 16 min 25 sec) 
Heartbeat CPU  0 instructions:  478000002 cycles:  414452678 heartbeat IPC: 1.23122 cumulative IPC: 1.03849 (Simulation time: 0 hr 16 min 27 sec) 
Heartbeat CPU  0 instructions:  479000002 cycles:  415264112 heartbeat IPC: 1.23239 cumulative IPC: 1.03892 (Simulation time: 0 hr 16 min 29 sec) 
Heartbeat CPU  0 instructions:  480000000 cycles:  416075411 heartbeat IPC: 1.23259 cumulative IPC: 1.03935 (Simulation time: 0 hr 16 min 31 sec) 
Heartbeat CPU  0 instructions:  481000001 cycles:  416887949 heartbeat IPC: 1.23071 cumulative IPC: 1.03978 (Simulation time: 0 hr 16 min 33 sec) 
Heartbeat CPU  0 instructions:  482000000 cycles:  417725538 heartbeat IPC: 1.19390 cumulative IPC: 1.04013 (Simulation time: 0 hr 16 min 35 sec) 
Heartbeat CPU  0 instructions:  483000003 cycles:  418571468 heartbeat IPC: 1.18213 cumulative IPC: 1.04045 (Simulation time: 0 hr 16 min 37 sec) 
Heartbeat CPU  0 instructions:  484000000 cycles:  419415880 heartbeat IPC: 1.18425 cumulative IPC: 1.04078 (Simulation time: 0 hr 16 min 39 sec) 
Heartbeat CPU  0 instructions:  485000003 cycles:  420260999 heartbeat IPC: 1.18327 cumulative IPC: 1.04111 (Simulation time: 0 hr 16 min 41 sec) 
Heartbeat CPU  0 instructions:  486000002 cycles:  421103125 heartbeat IPC: 1.18747 cumulative IPC: 1.04144 (Simulation time: 0 hr 16 min 43 sec) 
Heartbeat CPU  0 instructions:  487000001 cycles:  421943042 heartbeat IPC: 1.19059 cumulative IPC: 1.04178 (Simulation time: 0 hr 16 min 45 sec) 
Heartbeat CPU  0 instructions:  488000000 cycles:  422785174 heartbeat IPC: 1.18746 cumulative IPC: 1.04211 (Simulation time: 0 hr 16 min 47 sec) 
Heartbeat CPU  0 instructions:  489000001 cycles:  423625616 heartbeat IPC: 1.18985 cumulative IPC: 1.04244 (Simulation time: 0 hr 16 min 49 sec) 
Heartbeat CPU  0 instructions:  490000001 cycles:  424486017 heartbeat IPC: 1.16225 cumulative IPC: 1.04272 (Simulation time: 0 hr 16 min 51 sec) 
Heartbeat CPU  0 instructions:  491000000 cycles:  425553263 heartbeat IPC: 0.93699 cumulative IPC: 1.04242 (Simulation time: 0 hr 16 min 53 sec) 
Heartbeat CPU  0 instructions:  492000000 cycles:  426694152 heartbeat IPC: 0.87651 cumulative IPC: 1.04191 (Simulation time: 0 hr 16 min 55 sec) 
Heartbeat CPU  0 instructions:  493000002 cycles:  427817972 heartbeat IPC: 0.88982 cumulative IPC: 1.04146 (Simulation time: 0 hr 16 min 57 sec) 
Heartbeat CPU  0 instructions:  494000001 cycles:  428895140 heartbeat IPC: 0.92836 cumulative IPC: 1.04114 (Simulation time: 0 hr 16 min 59 sec) 
Heartbeat CPU  0 instructions:  495000000 cycles:  429970313 heartbeat IPC: 0.93008 cumulative IPC: 1.04082 (Simulation time: 0 hr 17 min 1 sec) 
Heartbeat CPU  0 instructions:  496000000 cycles:  431026367 heartbeat IPC: 0.94692 cumulative IPC: 1.04056 (Simulation time: 0 hr 17 min 3 sec) 
Heartbeat CPU  0 instructions:  497000000 cycles:  432097968 heartbeat IPC: 0.93318 cumulative IPC: 1.04026 (Simulation time: 0 hr 17 min 6 sec) 
Heartbeat CPU  0 instructions:  498000001 cycles:  433179066 heartbeat IPC: 0.92499 cumulative IPC: 1.03994 (Simulation time: 0 hr 17 min 8 sec) 
Heartbeat CPU  0 instructions:  499000000 cycles:  434371949 heartbeat IPC: 0.83830 cumulative IPC: 1.03931 (Simulation time: 0 hr 17 min 10 sec) 
Heartbeat CPU  0 instructions:  500000000 cycles:  435504954 heartbeat IPC: 0.88261 cumulative IPC: 1.03885 (Simulation time: 0 hr 17 min 12 sec) 
Heartbeat CPU  0 instructions:  501000002 cycles:  436804000 heartbeat IPC: 0.76980 cumulative IPC: 1.03794 (Simulation time: 0 hr 17 min 14 sec) 
Heartbeat CPU  0 instructions:  502000003 cycles:  437862229 heartbeat IPC: 0.94498 cumulative IPC: 1.03769 (Simulation time: 0 hr 17 min 16 sec) 
Heartbeat CPU  0 instructions:  503000000 cycles:  438984276 heartbeat IPC: 0.89123 cumulative IPC: 1.03727 (Simulation time: 0 hr 17 min 18 sec) 
Heartbeat CPU  0 instructions:  504000000 cycles:  440091752 heartbeat IPC: 0.90295 cumulative IPC: 1.03688 (Simulation time: 0 hr 17 min 20 sec) 
Heartbeat CPU  0 instructions:  505000003 cycles:  441177047 heartbeat IPC: 0.92141 cumulative IPC: 1.03656 (Simulation time: 0 hr 17 min 22 sec) 
Heartbeat CPU  0 instructions:  506000002 cycles:  442319034 heartbeat IPC: 0.87567 cumulative IPC: 1.03610 (Simulation time: 0 hr 17 min 24 sec) 
Heartbeat CPU  0 instructions:  507000000 cycles:  443483495 heartbeat IPC: 0.85876 cumulative IPC: 1.03557 (Simulation time: 0 hr 17 min 26 sec) 
Heartbeat CPU  0 instructions:  508000000 cycles:  444802191 heartbeat IPC: 0.75832 cumulative IPC: 1.03464 (Simulation time: 0 hr 17 min 29 sec) 
Heartbeat CPU  0 instructions:  509000002 cycles:  446392824 heartbeat IPC: 0.62868 cumulative IPC: 1.03301 (Simulation time: 0 hr 17 min 31 sec) 
Heartbeat CPU  0 instructions:  510000002 cycles:  447964620 heartbeat IPC: 0.63621 cumulative IPC: 1.03144 (Simulation time: 0 hr 17 min 34 sec) 
Heartbeat CPU  0 instructions:  511000003 cycles:  449549342 heartbeat IPC: 0.63103 cumulative IPC: 1.02985 (Simulation time: 0 hr 17 min 37 sec) 
Heartbeat CPU  0 instructions:  512000000 cycles:  451131862 heartbeat IPC: 0.63190 cumulative IPC: 1.02828 (Simulation time: 0 hr 17 min 39 sec) 
Heartbeat CPU  0 instructions:  513000003 cycles:  452703557 heartbeat IPC: 0.63626 cumulative IPC: 1.02675 (Simulation time: 0 hr 17 min 42 sec) 
Heartbeat CPU  0 instructions:  514000003 cycles:  454331912 heartbeat IPC: 0.61412 cumulative IPC: 1.02509 (Simulation time: 0 hr 17 min 45 sec) 
Heartbeat CPU  0 instructions:  515000000 cycles:  455928314 heartbeat IPC: 0.62641 cumulative IPC: 1.02352 (Simulation time: 0 hr 17 min 47 sec) 
Heartbeat CPU  0 instructions:  516000000 cycles:  457552988 heartbeat IPC: 0.61551 cumulative IPC: 1.02189 (Simulation time: 0 hr 17 min 50 sec) 
Heartbeat CPU  0 instructions:  517000001 cycles:  459115107 heartbeat IPC: 0.64016 cumulative IPC: 1.02043 (Simulation time: 0 hr 17 min 53 sec) 
Heartbeat CPU  0 instructions:  518000001 cycles:  460681777 heartbeat IPC: 0.63830 cumulative IPC: 1.01897 (Simulation time: 0 hr 17 min 55 sec) 
Heartbeat CPU  0 instructions:  519000000 cycles:  462238247 heartbeat IPC: 0.64248 cumulative IPC: 1.01755 (Simulation time: 0 hr 17 min 58 sec) 
Heartbeat CPU  0 instructions:  520000000 cycles:  463788144 heartbeat IPC: 0.64520 cumulative IPC: 1.01615 (Simulation time: 0 hr 18 min 0 sec) 
Heartbeat CPU  0 instructions:  521000003 cycles:  465216257 heartbeat IPC: 0.70023 cumulative IPC: 1.01506 (Simulation time: 0 hr 18 min 3 sec) 
Heartbeat CPU  0 instructions:  522000002 cycles:  466619707 heartbeat IPC: 0.71253 cumulative IPC: 1.01404 (Simulation time: 0 hr 18 min 6 sec) 
Heartbeat CPU  0 instructions:  523000001 cycles:  468015519 heartbeat IPC: 0.71643 cumulative IPC: 1.01305 (Simulation time: 0 hr 18 min 8 sec) 
Heartbeat CPU  0 instructions:  524000000 cycles:  469413167 heartbeat IPC: 0.71549 cumulative IPC: 1.01205 (Simulation time: 0 hr 18 min 11 sec) 
Heartbeat CPU  0 instructions:  525000000 cycles:  470744636 heartbeat IPC: 0.75105 cumulative IPC: 1.01123 (Simulation time: 0 hr 18 min 13 sec) 
Heartbeat CPU  0 instructions:  526000001 cycles:  472074885 heartbeat IPC: 0.75174 cumulative IPC: 1.01041 (Simulation time: 0 hr 18 min 16 sec) 
Heartbeat CPU  0 instructions:  527000001 cycles:  473475579 heartbeat IPC: 0.71393 cumulative IPC: 1.00943 (Simulation time: 0 hr 18 min 18 sec) 
Heartbeat CPU  0 instructions:  528000000 cycles:  474863392 heartbeat IPC: 0.72056 cumulative IPC: 1.00848 (Simulation time: 0 hr 18 min 21 sec) 
[...]
AAAAAAAAAAAAAAAAAAAAAAAAAAAAAAAAAA2222222222222222222IIIIIIIIIII
AAAAAAAAAAAAAAAAAAAAAAAAAAAAAAAAAAA222222222222222222IIIIIIIIIII
AAAAAAAAAAAAAAAAAAAAAAAAAAAAAAAAAAAA22222222222222222IIIIIIIIIII
AAAAAAAAAAAAAAAAAAAAAAAAAAAAAAAAAAAAA2222222222222222IIIIIIIIIII
AAAAAAAAAAAAAAAAAAAAAAAAAAAAAAAAAAAAAA2222222222222224IIIIIIIIII
AAAAAAAAAAAAAAAAAAAAAAAAAAAAAAAAAAAAAAA2222222222222244IIIIIIIII
AAAAAAAAAAAAAAAAAAAAAAAAAAAAAAAAAAAAAAAA2222222222222444IIIIIIII
AAAAAAAAAAAAAAAAAAAAAAAAAAAAAAAAAAAAAAAAA2222222222224444IIIIIII
AAAAAAAAAAAAAAAAAAAAAAAAAAAAAAAAAAAAAAAAA2222222222222224IIIIIII
AAAAAAAAAAAAAAAAAAAAAAAAAAAAAAAAAAAAAAAAAA222222222222222IIIIIII
AAAAAAAAAAAAAAAAAAAAAAAAAAAAAAAAAAAAAAAAAAA222222222222222IIIIII
AAAAAAAAAAAAAAAAAAAAAAAAAAAAAAAAAAAAAAAAAAAA222222222222222IIIII
AAAAAAAAAAAAAAAAAAAAAAAAAAAAAAAAAAAAAAAAAAAAA222222222222222IIII
AAAAAAAAAAAAAAAAAAAAAAAAAAAAAAAAAAAAAAAAAAAAAA222222222222222III
AAAAAAAAAAAAAAAAAAAAAAAAAAAAAAAAAAAAAAAAAAAAAAA222222222222222II
AAAAAAAAAAAAAAAAAAAAAAAAAAAAAAAAAAAAAAAAAAAAAAAA222222222222222I
AAAAAAAAAAAAAAAAAAAAAAAAAAAAAAAAAAAAAAAAAAAAAAAAA222222222222222
AAAAAAAAAAAAAAAAAAAAAAAAAAAAAAAAAAAAAAAAAAAAAAAAAA22222222222222
AAAAAAAAAAAAAAAAAAAAAAAAAAAAAAAAAAAAAAAAAAAAAAAAAAA2222222222222
AAAAAAAAAAAAAAAAAAAAAAAAAAAAAAAAAAAAAAAAAAAAAAAAAAAA222222222222
AAAAAAAAAAAAAAAAAAAAAAAAAAAAAAAAAAAAAAAAAAAAAAAAAAAAA22222222222
AAAAAAAAAAAAAAAAAAAAAAAAAAAAAAAAAAAAAAAAAAAAAAAAAAAAAA2222222222
AAAAAAAAAAAAAAAAAAAAAAAAAAAAAAAAAAAAAAAAAAAAAAAAAAAAAAA222222222
AAAAAAAAAAAAAAAAAAAAAAAAAAAAAAAAAAAAAAAAAAAAAAAAAAAAAAAA22222222
AAAAAAAAAAAAAAAAAAAAAAAAAAAAAAAAAAAAAAAAAAAAAAAAAAAAAAAAA2222222
AAAAAAAAAAAAAAAAAAAAAAAAAAAAAAAAAAAAAAAAAAAAAAAAAAAAAAAAAA222222
AAAAAAAAAAAAAAAAAAAAAAAAAAAAAAAAAAAAAAAAAAAAAAAAAAAAAAAAAAA22222
AAAAAAAAAAAAAAAAAAAAAAAAAAAAAAAAAAAAAAAAAAAAAAAAAAAAAAAAAAAA2222
AAAAAAAAAAAAAAAAAAAAAAAAAAAAAAAAAAAAAAAAAAAAAAAAAAAAAAAAAAAAA222
AAAAAAAAAAAAAAAAAAAAAAAAAAAAAAAAAAAAAAAAAAAAAAAAAAAAAAAAAAAAAA22
AAAAAAAAAAAAAAAAAAAAAAAAAAAAAAAAAAAAAAAAAAAAAAAAAAAAAAAAAAAAAAA2
AAAAAAAAAAAAAAAAAAAAAAAAAAAAAAAAAAAAAAAAAAAAAAAAAAAAAAAAAAAAAAAA
AIAAAAAAAAAAAAAAAAAAAAAAAAAAAAAAAAAAAAAAAAAAAAAAAAAAAAAAAAAAAAAA
AIIAAAAAAAAAAAAAAAAAAAAAAAAAAAAAAAAAAAAAAAAAAAAAAAAAAAAAAAAAAAAA
AIIIAAAAAAAAAAAAAAAAAAAAAAAAAAAAAAAAAAAAAAAAAAAAAAAAAAAAAAAAAAAA
AIIIIAAAAAAAAAAAAAAAAAAAAAAAAAAAAAAAAAAAAAAAAAAAAAAAAAAAAAAAAAAA
AIIIIIAAAAAAAAAAAAAAAAAAAAAAAAAAAAAAAAAAAAAAAAAAAAAAAAAAAAAAAAAA
AIIIIIAAAAIAAAAAAAAAAAAAAAAAAAAAAAAAAAAAAAAAAAAAAAAAAAAAAAAAAAAA
AIIIIIAAAAIIAAAAAAAAAAAAAAAAAAAAAAAAAAAAAAAAAAAAAAAAAAAAAAAAAAAA
AIIIIIAAAAIIIAAAAAAAAAAAAAAAAAAAAAAAAAAAAAAAAAAAAAAAAAAAAAAAAAAA
AIIIIIAAAAIIIIAAAAAAAAAAAAAAAAAAAAAAAAAAAAAAAAAAAAAAAAAAAAAAAAAA
AIIIIIAAAAIIIIIAAAAAAAAAAAAAAAAAAAAAAAAAAAAAAAAAAAAAAAAAAAAAAAAA
AIIIIIAAAAIIIIIIAAAAAAAAAAAAAAAAAAAAAAAAAAAAAAAAAAAAAAAAAAAAAAAA
AIIIIIAAAAIIIIIIIAAAAAAAAAAAAAAAAAAAAAAAAAAAAAAAAAAAAAAAAAAAAAAA
AIIIIIAAAAIIIIIIIIAAAAAAAAAAAAAAAAAAAAAAAAAAAAAAAAAAAAAAAAAAAAAA
AIIIIIAAAAIIIIIIIIIAAAAAAAAAAAAAAAAAAAAAAAAAAAAAAAAAAAAAAAAAAAAA
AIIIIIAAAAIIIIIIIIIAAIAAAAAAAAAAAAAAAAAAAAAAAAAAAAAAAAAAAAAAAAAA
AIIIIIAAIAIIIIIIIIIAAIAAAAAAAAAAAAAAAAAAAAAAAAAAAAAAAAAAAAAAAAAA
AIIIIIAAIIIIIIIIIIIAAIAAAAAAAAAAAAAAAAAAAAAAAAAAAAAAAAAAAAAAAAAA
AIIIIIAAIIIIIIIIIIIIAIAAAAAAAAAAAAAAAAAAAAAAAAAAAAAAAAAAAAAAAAAA
AIIIIIAAIIIIIIIIIIIIIIAAAAAAAAAAAAAAAAAAAAAAAAAAAAAAAAAAAAAAAAAA
AIIIIIAAIIIIIIIIIIIIIIIAAAAAAAAAAAAAAAAAAAAAAAAAAAAAAAAAAAAAAAAA
AIIIIIAAIIIIIIIIIIIIIIIIAAAAAAAAAAAAAAAAAAAAAAAAAAAAAAAAAAAAAAAA
AIIIIIAAIIIIIIIIIIIIIIIIAIAAAAAAAAAAAAAAAAAAAAAAAAAAAAAAAAAAAAAA
AIIIIIAAIIIIIIIIIIIIIIIIAIIAAAAAAAAAAAAAAAAAAAAAAAAAAAAAAAAAAAAA
AIIIIIAAIIIIIIIIIIIIIIIIAIIIAAAAAAAAAAAAAAAAAAAAAAAAAAAAAAAAAAAA
AIIIIIAAIIIIIIIIIIIIIIIIAIIIIAAAAAAAAAAAAAAAAAAAAAAAAAAAAAAAAAAA
AIIIIIAAIIIIIIIIIIIIIIIIAIIIIIAAAAAAAAAAAAAAAAAAAAAAAAAAAAAAAAAA
AIIIIIAAIIIIIIIIIIIIIIIIAIIIIIIAAAAAAAAAAAAAAAAAAAAAAAAAAAAAAAAA
AIIIIIAAIIIIIIIIIIIIIIIIAIIIIIIIAAAAAAAAAAAAAAAAAAAAAAAAAAAAAAAA
AIIIIIAAIIIIIIIIIIIIIIIIAIIIIIIIIAAAAAAAAAAAAAAAAAAAAAAAAAAAAAAA
AIIIIIAAIIIIIIIIIIIIIIIIAIIIIIIIIIAAAAAAAAAAAAAAAAAAAAAAAAAAAAAA
AIIIIIAAIIIIIIIIIIIIIIIIAIIIIIIIIIIAAAAAAAAAAAAAAAAAAAAAAAAAAAAA
AIIIIIAAIIIIIIIIIIIIIIIIAIIIIIIIIIIIAAAAAAAAAAAAAAAAAAAAAAAAAAAA
AIIIIIAAIIIIIIIIIIIIIIIIIIIIIIIIIIIIAAAAAAAAAAAAAAAAAAAAAAAAAAAA
AIIIIIAAIIIIIIIIIIIIIIIIIIIIIIIIIIIIAAAAAIAAAAAAAAAAAAAAAAAAAAAA
AIIIIIAAIIIIIIIIIIIIIIIIIIIIIIIIIIIIAAAAAIIAAAAAAAAAAAAAAAAAAAAA
AIIIIIAAIIIIIIIIIIIIIIIIIIIIIIIIIIIIAAAAAIIIAAAAAAAAAAAAAAAAAAAA
AIIIIIAAIIIIIIIIIIIIIIIIIIIIIIIIIIIIAAAAAIIIIAAAAAAAAAAAAAAAAAAA
AIIIIIAAIIIIIIIIIIIIIIIIIIIIIIIIIIIIAAAAAIIIIIAAAAAAAAAAAAAAAAAA
AIIIIIAAIIIIIIIIIIIIIIIIIIIIIIIIIIIIAAAAIIIIIIAAAAAAAAAAAAAAAAAA
AIIIIIAAIIIIIIIIIIIIIIIIIIIIIIIIIIIIAAAAIIIIIIAAAIAAAAAAAAAAAAAA
AIIIIIAAIIIIIIIIIIIIIIIIIIIIIIIIIIIIAAAAIIIIIIAAAIIAAAAAAAAAAAAA
AIIIIIAAIIIIIIIIIIIIIIIIIIIIIIIIIIIIAAAAIIIIIIAAAIIAAAAAAIAAAAAA
AIIIIIAAIIIIIIIIIIIIIIIIIIIIIIIIIIIIAAAAIIIIIIAAAIIAAAAAAIIAAAAA
AIIIIIAAIIIIIIIIIIIIIIIIIIIIIIIIIIIIAAAAIIIIIIAAAIIAAAAAIIIAAAAA
A22222AA22222222IIIIIIII4IIIIIIIIIIIAAAAIIIIIIAAAIIAAAAAIIIAAAAA
AA2222AA222222222IIIIIII44IIIIIIIIIIAAAAIIIIIIAAAIIAAAAAIIIAAAAA
AAA222AA2222222222IIIIII444IIIIIIIIIAAAAIIIIIIAAAIIAAAAAIIIAAAAA
AAAA22AA22222222222IIIII4444IIIIIIIIAAAAIIIIIIAAAIIAAAAAIIIAAAAA
AAAAA2AA222222222222IIII44444IIIIIIIAAAAIIIIIIAAAIIAAAAAIIIAAAAA
AAAAAAAA2222222222222III444444IIIIIIAAAAIIIIIIAAAIIAAAAAIIIAAAAA
AAAAAAAA22222222222222II4444444IIIIIAAAAIIIIIIAAAIIAAAAAIIIAAAAA
AAAAAAAA222222222222222I44444444IIIIAAAAIIIIIIAAAIIAAAAAIIIAAAAA
AAAAAAAAA222222222222222444444444IIIAAAAIIIIIIAAAIIAAAAAIIIAAAAA
AAAAAAAAAA222222222222224444444444IIAAAAIIIIIIAAAIIAAAAAIIIAAAAA
AAAAAAAAAAA222222222222244444444444IAAAAIIIIIIAAAIIAAAAAIIIAAAAA
AAAAAAAAAAAA222222222222444444444444AAAAIIIIIIAAAIIAAAAAIIIAAAAA
AAAAAAAAAAAAA22222222222444444444444AAAAIIIIIIAAAIIAAAAAIIIAAAAA
AAAAAAAAAAAAAA2222222222444444444444AAAAIIIIIIAAAIIAAAAAIIIAAAAA
AAAAAAAAAAAAAAA222222222444444444444AAAAIIIIIIAAAIIAAAAAIIIAAAAA
AAAAAAAAAAAAAAAA22222222244444444444AAAAIIIIIIAAAIIAAAAAIIIAAAAA
AAAAAAAAAAAAAAAAA2222222224444444444AAAA4IIIIIAAAIIAAAAAIIIAAAAA
AAAAAAAAAAAAAAAAAA222222222444444444AAAA44IIIIAAAIIAAAAAIIIAAAAA
AAAAAAAAAAAAAAAAAAA22222222244444444AAAA444IIIAAAIIAAAAAIIIAAAAA
AAAAAAAAAAAAAAAAAAAA2222222224444444AAAA4444IIAAAIIAAAAAIIIAAAAA
AAAAAAAAAAAAAAAAAAAAA222222222444444AAAA44444IAAAIIAAAAAIIIAAAAA
AAAAAAAAAAAAAAAAAAAAAA22222222244444AAAA444444AAAIIAAAAAIIIAAAAA
AAAAAAAAAAAAAAAAAAAAAAA2222222224444AAAA444444AAAIIAAAAAIIIAAAAA
AAAAAAAAAAAAAAAAAAAAAAAA222222222444AAAA444444AAAIIAAAAAIIIAAAAA
AAAAAAAAAAAAAAAAAAAAAAAAA22222222244AAAA444444AAAIIAAAAAIIIAAAAA
AAAAAAAAAAAAAAAAAAAAAAAAAA2222222224AAAA444444AAA4IAAAAAIIIAAAAA
AAAAAAAAAAAAAAAAAAAAAAAAAAA222222222AAAA444444AAA44AAAAAIIIAAAAA
AAAAAAAAAAAAAAAAAAAAAAAAAAAA22222222AAAA444444AAA44AAAAAIIIAAAAA
AAAAAAAAAAAAAAAAAAAAAAAAAAAAA2222222AAAA444444AAA44AAAAAIIIAAAAA
AAAAAAAAAAAAAAAAAAAAAAAAAAAAAA222222AAAA444444AAA44AAAAAIIIAAAAA
AAAAAAAAAAAAAAAAAAAAAAAAAAAAAAA22222AAAA222222AAA44AAAAAIIIAAAAA
AAAAAAAAAAAAAAAAAAAAAAAAAAAAAAAA2222AAAA222222AAA44AAAAAIIIAAAAA
AAAAAAAAAAAAAAAAAAAAAAAAAAAAAAAAA222AAAA222222AAA44AAAAAIIIAAAAA
AAAAAAAAAAAAAAAAAAAAAAAAAAAAAAAAAA22AAAA222222AAA44AAAAAIIIAAAAA
AAAAAAAAAAAAAAAAAAAAAAAAAAAAAAAAAAA2AAAA222222AAA24AAAAAIIIAAAAA
AAAAAAAAAAAAAAAAAAAAAAAAAAAAAAAAAAAAAAAA222222AAA22AAAAAIIIAAAAA
AAAAAAAAAAAAAAAAAAAAAAAAAAAAAAAAAAAAAAAAA22222AAA22AAAAA4IIAAAAA
AAAAAAAAAAAAAAAAAAAAAAAAAAAAAAAAAAAAAAAAAA2222AAA22AAAAA24IAAAAA
AAAAAAAAAAAAAAAAAAAAAAAAAAAAAAAAAAAAAAAAAAA222AAA22AAAAA224AAAAA
AAAAAAAAAAAAAAAAAAAAAAAAAAAAAAAAAAAAAAAAAAAA22AAA22AAAAA222AAAAA
AAAAAAAAAAAAAAAAAAAAAAAAAAAAAAAAAAAAAAAAAAAAA2AAA22AAAAA222AAAAA
AAAAAAAAAAAAAAAAAAAAAAAAAAAAAAAAAAAAAAAAAAAAAAAAA22AAAAA222AAAAA
AAAAAAAAAAAAAAAAAAAAAAAAAAAAAAAAAAAAAAAAAAAAAAAAAA2AAAAA222AAAAA
AAAAAAAAAAAAAAAAAAAAAAAAAAAAAAAAAAAAAAAAAAAAAAAAAAAAAAAA222AAAAA
AAAAAAAAAAAAAAAAAAAAAAAAAAAAAAAAAAAAAAAAAAAAAAAAAAAAAAAAA22AAAAA
AAAAAAAAAAAAAAAAAAAAAAAAAAAAAAAAAAAAAAAAAAAAAAAAAAAAAAAAAA2AAAAA
AAAAAAAAAAAAAAAAAAAAAAAAAAAAAAAAAAAAAAAAAAAAAAAAAAAAAAAAAAAAAAAA
AAAAAAAAAAAAAAAAAAAAAAAAAAAAAAAAAAAAIAAAAAAAAAAAAAAAAAAAAAAAAAAA
AAAAAAAAAAAAAAAAAAAAAAAAAAAAAAAAAAAAIIAAAAAAAAAAAAAAAAAAAAAAAAAA
AAAAAAAAAAAAAAAAAAAAAAAAAAAAAAAAAAAAIIIAAAAAAAAAAAAAAAAAAAAAAAAA
AAAAAAAAAAAAAAAAAAAAAAAAAAAAAAAAAAAAIIIIAAAAAAAAAAAAAAAAAAAAAAAA
AIAAAAAAAAAAAAAAAAAAAAAAAAAAAAAAAAAAIIIIAAAAAAAAAAAAAAAAAAAAAAAA
AIIAAAAAAAAAAAAAAAAAAAAAAAAAAAAAAAAAIIIIAAAAAAAAAAAAAAAAAAAAAAAA
AIIIAAAAAAAAAAAAAAAAAAAAAAAAAAAAAAAAIIIIAAAAAAAAAAAAAAAAAAAAAAAA
AIIIIAAAAAAAAAAAAAAAAAAAAAAAAAAAAAAAIIIIAAAAAAAAAAAAAAAAAAAAAAAA
AIIIIIAAAAAAAAAAAAAAAAAAAAAAAAAAAAAAIIIIAAAAAAAAAAAAAAAAAAAAAAAA
AIIIIIAAAIAAAAAAAAAAAAAAAAAAAAAAAAAAIIIIAAAAAAAAAAAAAAAAAAAAAAAA
AIIIIIAAAIIAAAAAAAAAAAAAAAAAAAAAAAAAIIIIAAAAAAAAAAAAAAAAAAAAAAAA
AIIIIIAAAIIIAAAAAAAAAAAAAAAAAAAAAAAAIIIIAAAAAAAAAAAAAAAAAAAAAAAA
AIIIIIAAAIIIIAAAAAAAAAAAAAAAAAAAAAAAIIIIAAAAAAAAAAAAAAAAAAAAAAAA
AIIIIIAAAIIIIIAAAAAAAAAAAAAAAAAAAAAAIIIIAAAAAAAAAAAAAAAAAAAAAAAA
AIIIIIAAAIIIIIIAAAAAAAAAAAAAAAAAAAAAIIIIAAAAAAAAAAAAAAAAAAAAAAAA
AIIIIIAAAIIIIIIIAAAAAAAAAAAAAAAAAAAAIIIIAAAAAAAAAAAAAAAAAAAAAAAA
AIIIIIAAAIIIIIIIIAAAAAAAAAAAAAAAAAAAIIIIAAAAAAAAAAAAAAAAAAAAAAAA
AIIIIIAAAIIIIIIIIIAAAAAAAAAAAAAAAAAAIIIIAAAAAAAAAAAAAAAAAAAAAAAA
AIIIIIAAAIIIIIIIIIIAAAAAAAAAAAAAAAAAIIIIAAAAAAAAAAAAAAAAAAAAAAAA
AIIIIIAAAIIIIIIIIIIAAIAAAAAAAAAAAAAAIIIIAAAAAAAAAAAAAAAAAAAAAAAA
AIIIIIAAAIIIIIIIIIIAAIIAAAAAAAAAAAAAIIIIAAAAAAAAAAAAAAAAAAAAAAAA
AIIIIIAAAIIIIIIIIIIAAIIAAIAAAAAAAAAAIIIIAAAAAAAAAAAAAAAAAAAAAAAA
AIIIIIAAAIIIIIIIIIIAAIIAAIIAAAAAAAAAIIIIAAAAAAAAAAAAAAAAAAAAAAAA
AIIIIIAAAIIIIIIIIIIAAIIAAIIIAAAAAAAAIIIIAAAAAAAAAAAAAAAAAAAAAAAA
AIIIIIAAAIIIIIIIIIIIAIIAAIIIAAAAAAAAIIIIAAAAAAAAAAAAAAAAAAAAAAAA
AIIIIIAAAIIIIIIIIIIIAIIAAIIIIAAAAAAAIIIIAAAAAAAAAAAAAAAAAAAAAAAA
AIIIIIAAAIIIIIIIIIIIIIIAAIIIIAAAAAAAIIIIAAAAAAAAAAAAAAAAAAAAAAAA
AIIIIIAAAIIIIIIIIIIIIIIAAIIIIIAAAAAAIIIIAAAAAAAAAAAAAAAAAAAAAAAA
AIIIIIAAAIIIIIIIIIIIIIIAAIIIIIIAAAAAIIIIAAAAAAAAAAAAAAAAAAAAAAAA
AIIIIIAAAIIIIIIIIIIIIIIAAIIIIIIIAAAAIIIIAAAAAAAAAAAAAAAAAAAAAAAA
AIIIIIAAAIIIIIIIIIIIIIIIAIIIIIIIAAAAIIIIAAAAAAAAAAAAAAAAAAAAAAAA
AIIIIIAAAIIIIIIIIIIIIIIIIIIIIIIIAAAAIIIIAAAAAAAAAAAAAAAAAAAAAAAA
AIIIIIAAAIIIIIIIIIIIIIIIIIIIIIIIAAIAIIIIAAAAAAAAAAAAAAAAAAAAAAAA
AIIIIIAAAIIIIIIIIIIIIIIIIIIIIIIIAAIIIIIIAAAAAAAAAAAAAAAAAAAAAAAA
AIIIIIAAAIIIIIIIIIIIIIIIIIIIIIIIAAIIIIIIAIAAAAAAAAAAAAAAAAAAAAAA
AIIIIIAAAIIIIIIIIIIIIIIIIIIIIIIIAAIIIIIIAIAAAAAAAAAIAAAAAAAAAAAA
AIIIIIAAAIIIIIIIIIIIIIIIIIIIIIIIAAIIIIIIAIAAAAAAAAAIIAAAAAAAAAAA
AIIIIIAAAIIIIIIIIIIIIIIIIIIIIIIIAAIIIIIIAIAAAAAAAAAIIIAAAAAAAAAA
AIIIIIAAAIIIIIIIIIIIIIIIIIIIIIIIAAIIIIIIAIAAAAAAAAAIIIIAAAAAAAAA
AIIIIIAAAIIIIIIIIIIIIIIIIIIIIIIIAAIIIIIIAIAAAAAAAAAIIIIIAAAAAAAA
AIIIIIAAAIIIIIIIIIIIIIIIIIIIIIIIIAIIIIIIAIAAAAAAAAAIIIIIAAAAAAAA
AIIIIIAAAIIIIIIIIIIIIIIIIIIIIIIIIIIIIIIIAIAAAAAAAAAIIIIIAAAAAAAA
AIIIIIAAAIIIIIIIIIIIIIIIIIIIIIIIIIIIIIIIIIAAAAAAAAAIIIIIAAAAAAAA
AIIIIIAAAIIIIIIIIIIIIIIIIIIIIIIIIIIIIIIIIIAAAAAAAIAIIIIIAAAAAAAA
AIIIIIAAAIIIIIIIIIIIIIIIIIIIIIIIIIIIIIIIIIAAAAAAAIIIIIIIAAAAAAAA
AIIIIIAAAIIIIIIIIIIIIIIIIIIIIIIIIIIIIIIIIIAAAAAAAIIIIIIIIAAAAAAA
AIIIIIAAAIIIIIIIIIIIIIIIIIIIIIIIIIIIIIIIIIAAAAAAAIIIIIIIIIAAAAAA
AIIIIIAAAIIIIIIIIIIIIIIIIIIIIIIIIIIIIIIIIIAAAAAAAIIIIIIIIIIAAAAA
AIIIIIAAAIIIIIIIIIIIIIIIIIIIIIIIIIIIIIIIIIAAAAAAAIIIIIIIIIIIAAAA
AIIIIIAAAIIIIIIIIIIIIIIIIIIIIIIIIIIIIIIIIIAAAAAAAIIIIIIIIIIIIAAA
AIIIIIAAAIIIIIIIIIIIIIIIIIIIIIIIIIIIIIIIIIAAAAAAAIIIIIIIIIIIIIAA
AIIIIIAAAIIIIIIIIIIIIIIIIIIIIIIIIIIIIIIIIIAAAAAAAIIIIIIIIIIIIIIA
A22222AAA2222222IIIIIIII2IIIIIIIIIIIIIIIIIAAAAAAAIIIIIIIIIIIIIIA
AA2222AAA22222222IIIIIII22IIIIIIIIIIIIIIIIAAAAAAAIIIIIIIIIIIIIIA
AAA222AAA222222222IIIIII222IIIIIIIIIIIIIIIAAAAAAAIIIIIIIIIIIIIIA
AAAA22AAA2222222222IIIII2222IIIIIIIIIIIIIIAAAAAAAIIIIIIIIIIIIIIA
AAAAA2AAA22222222222IIII22222IIIIIIIIIIIIIAAAAAAAIIIIIIIIIIIIIIA
AAAAAAAAA222222222222III222222IIIIIIIIIIIIAAAAAAAIIIIIIIIIIIIIIA
AAAAAAAAA2222222222222II2222222IIIIIIIIIIIAAAAAAAIIIIIIIIIIIIIIA
AAAAAAAAA22222222222222I22222222IIIIIIIIIIAAAAAAAIIIIIIIIIIIIIIA
AAAAAAAAA222222222222222222222222IIIIIIIIIAAAAAAAIIIIIIIIIIIIIIA
AAAAAAAAAA22222222222222222222222IIIIIIIIIAAAAAAAIIIIIIIIIIIIIIA
AAAAAAAAAAA2222222222222222222222IIIIIIIIIAAAAAAAIIIIIIIIIIIIIIA
AAAAAAAAAAAA222222222222222222222IIIIIIIIIAAAAAAAIIIIIIIIIIIIIIA
AAAAAAAAAAAAA22222222222222222222IIIIIIIIIAAAAAAAIIIIIIIIIIIIIIA
AAAAAAAAAAAAAA2222222222222222222IIIIIIIIIAAAAAAAIIIIIIIIIIIIIIA
AAAAAAAAAAAAAAA222222222222222222IIIIIIIIIAAAAAAAIIIIIIIIIIIIIIA
AAAAAAAAAAAAAAAA22222222222222222IIIIIIIIIAAAAAAAIIIIIIIIIIIIIIA
AAAAAAAAAAAAAAAAA2222222222222222IIIIIIIIIAAAAAAAIIIIIIIIIIIIIIA
AAAAAAAAAAAAAAAAAA2222222222222224IIIIIIIIAAAAAAAIIIIIIIIIIIIIIA
AAAAAAAAAAAAAAAAAAA2222222222222244IIIIIIIAAAAAAAIIIIIIIIIIIIIIA
AAAAAAAAAAAAAAAAAAAA2222222222222444IIIIIIAAAAAAAIIIIIIIIIIIIIIA
AAAAAAAAAAAAAAAAAAAAA2222222222224444IIIIIAAAAAAAIIIIIIIIIIIIIIA
AAAAAAAAAAAAAAAAAAAAAA2222222222244444IIIIAAAAAAAIIIIIIIIIIIIIIA
AAAAAAAAAAAAAAAAAAAAAAA2222222222444444IIIAAAAAAAIIIIIIIIIIIIIIA
AAAAAAAAAAAAAAAAAAAAAAAA2222222224444444IIAAAAAAAIIIIIIIIIIIIIIA
AAAAAAAAAAAAAAAAAAAAAAAAA2222222244444444IAAAAAAAIIIIIIIIIIIIIIA
AAAAAAAAAAAAAAAAAAAAAAAAA2222222222222224IAAAAAAAIIIIIIIIIIIIIIA
AAAAAAAAAAAAAAAAAAAAAAAAAA2222222222222224AAAAAAAIIIIIIIIIIIIIIA
AAAAAAAAAAAAAAAAAAAAAAAAAAA222222222222222AAAAAAAIIIIIIIIIIIIIIA
AAAAAAAAAAAAAAAAAAAAAAAAAAAA22222222222222AAAAAAAIIIIIIIIIIIIIIA
AAAAAAAAAAAAAAAAAAAAAAAAAAAAA2222222222222AAAAAAAIIIIIIIIIIIIIIA
AAAAAAAAAAAAAAAAAAAAAAAAAAAAAA222222222222AAAAAAAIIIIIIIIIIIIIIA
AAAAAAAAAAAAAAAAAAAAAAAAAAAAAAA22222222222AAAAAAAIIIIIIIIIIIIIIA
AAAAAAAAAAAAAAAAAAAAAAAAAAAAAAAA2222222222AAAAAAAIIIIIIIIIIIIIIA
AAAAAAAAAAAAAAAAAAAAAAAAAAAAAAAAA222222222AAAAAAAIIIIIIIIIIIIIIA
AAAAAAAAAAAAAAAAAAAAAAAAAAAAAAAAAA22222222AAAAAAA4IIIIIIIIIIIIIA
AAAAAAAAAAAAAAAAAAAAAAAAAAAAAAAAAAA2222222AAAAAAA24IIIIIIIIIIIIA
AAAAAAAAAAAAAAAAAAAAAAAAAAAAAAAAAAAA222222AAAAAAA224IIIIIIIIIIIA
AAAAAAAAAAAAAAAAAAAAAAAAAAAAAAAAAAAAA22222AAAAAAA2224IIIIIIIIIIA
AAAAAAAAAAAAAAAAAAAAAAAAAAAAAAAAAAAAAA2222AAAAAAA22224IIIIIIIIIA
AAAAAAAAAAAAAAAAAAAAAAAAAAAAAAAAAAAAAAA222AAAAAAA222224IIIIIIIIA
AAAAAAAAAAAAAAAAAAAAAAAAAAAAAAAAAAAAAAAA22AAAAAAA2222224IIIIIIIA
AAAAAAAAAAAAAAAAAAAAAAAAAAAAAAAAAAAAAAAAA2AAAAAAA22222224IIIIIIA
AAAAAAAAAAAAAAAAAAAAAAAAAAAAAAAAAAAAAAAAAAAAAAAAA222222224IIIIIA
AAAAAAAAAAAAAAAAAAAAAAAAAAAAAAAAAAAAAAAAAAAAAAAAA2222222224IIIIA
AAAAAAAAAAAAAAAAAAAAAAAAAAAAAAAAAAAAAAAAAAAAAAAAA22222222224IIIA
AAAAAAAAAAAAAAAAAAAAAAAAAAAAAAAAAAAAAAAAAAAAAAAAA222222222224IIA
AAAAAAAAAAAAAAAAAAAAAAAAAAAAAAAAAAAAAAAAAAAAAAAAA2222222222224IA
AAAAAAAAAAAAAAAAAAAAAAAAAAAAAAAAAAAAAAAAAAAAAAAAA2222222222222IA
AAAAAAAAAAAAAAAAAAAAAAAAAAAAAAAAAAAAAAAAAAAAAAAAA22222222222222A
AAAAAAAAAAAAAAAAAAAAAAAAAAAAAAAAAAAAAAAAAAAAAAAAAA2222222222222A
AAAAAAAAAAAAAAAAAAAAAAAAAAAAAAAAAAAAAAAAAAAAAAAAAAA222222222222A
AAAAAAAAAAAAAAAAAAAAAAAAAAAAAAAAAAAAAAAAAAAAAAAAAAAA22222222222A
AAAAAAAAAAAAAAAAAAAAAAAAAAAAAAAAAAAAAAAAAAAAAAAAAAAAA2222222222A
AAAAAAAAAAAAAAAAAAAAAAAAAAAAAAAAAAAAAAAAAAAAAAAAAAAAAA222222222A
AAAAAAAAAAAAAAAAAAAAAAAAAAAAAAAAAAAAAAAAAAAAAAAAAAAAAAA22222222A
AAAAAAAAAAAAAAAAAAAAAAAAAAAAAAAAAAAAAAAAAAAAAAAAAAAAAAAA2222222A
AAAAAAAAAAAAAAAAAAAAAAAAAAAAAAAAAAAAAAAAAAAAAAAAAAAAAAAAA222222A
AAAAAAAAAAAAAAAAAAAAAAAAAAAAAAAAAAAAAAAAAAAAAAAAAAAAAAAAAA22222A
AAAAAAAAAAAAAAAAAAAAAAAAAAAAAAAAAAAAAAAAAAAAAAAAAAAAAAAAAAA2222A
AAAAAAAAAAAAAAAAAAAAAAAAAAAAAAAAAAAAAAAAAAAAAAAAAAAAAAAAAAAA222A
AAAAAAAAAAAAAAAAAAAAAAAAAAAAAAAAAAAAAAAAAAAAAAAAAAAAAAAAAAAAA22A
AAAAAAAAAAAAAAAAAAAAAAAAAAAAAAAAAAAAAAAAAAAAAAAAAAAAAAAAAAAAAA2A
AAAAAAAAAAAAAAAAAAAAAAAAAAAAAAAAAAAAAAAAAAAAAAAAAAAAAAAAAAAAAAAA
AAAAAAAAAAAAAAAAAAAAAAAAAAAAAAAAAAAAIAAAAAAAAAAAAAAAAAAAAAAAAAAA
AAAAAAAAAAAAAAAAAAAAAAAAAAAAAAAAAAAAIIAAAAAAAAAAAAAAAAAAAAAAAAAA
AAAAAAAAAAAAAAAAAAAAAAAAAAAAAAAAAAAAIIIAAAAAAAAAAAAAAAAAAAAAAAAA
AAAAAAAAAAAAAAAAAAAAAAAAAAAAAAAAAAAAIIIIAAAAAAAAAAAAAAAAAAAAAAAA
AAAAIAAAAAAAAAAAAAAAAAAAAAAAAAAAAAAAIIIIAAAAAAAAAAAAAAAAAAAAAAAA
AAAAIIAAAAAAAAAAAAAAAAAAAAAAAAAAAAAAIIIIAAAAAAAAAAAAAAAAAAAAAAAA
AIAAIIAAAAAAAAAAAAAAAAAAAAAAAAAAAAAAIIIIAAAAAAAAAAAAAAAAAAAAAAAA
AIIAIIAAAAAAAAAAAAAAAAAAAAAAAAAAAAAAIIIIAAAAAAAAAAAAAAAAAAAAAAAA
AIIIIIAAAAAAAAAAAAAAAAAAAAAAAAAAAAAAIIIIAAAAAAAAAAAAAAAAAAAAAAAA
AIIIIIAAAIAAAAAAAAAAAAAAAAAAAAAAAAAAIIIIAAAAAAAAAAAAAAAAAAAAAAAA
AIIIIIAAAIIAAAAAAAAAAAAAAAAAAAAAAAAAIIIIAAAAAAAAAAAAAAAAAAAAAAAA
AIIIIIAAAIIIAAAAAAAAAAAAAAAAAAAAAAAAIIIIAAAAAAAAAAAAAAAAAAAAAAAA
AIIIIIAAAIIIIAAAAAAAAAAAAAAAAAAAAAAAIIIIAAAAAAAAAAAAAAAAAAAAAAAA
AIIIIIAAAIIIIIAAAAAAAAAAAAAAAAAAAAAAIIIIAAAAAAAAAAAAAAAAAAAAAAAA
AIIIIIAAAIIIIIIAAAAAAAAAAAAAAAAAAAAAIIIIAAAAAAAAAAAAAAAAAAAAAAAA
AIIIIIAAAIIIIIIIAAAAAAAAAAAAAAAAAAAAIIIIAAAAAAAAAAAAAAAAAAAAAAAA
AIIIIIAAAIIIIIIIIAAAAAAAAAAAAAAAAAAAIIIIAAAAAAAAAAAAAAAAAAAAAAAA
AIIIIIAAAIIIIIIIIIAAAAAAAAAAAAAAAAAAIIIIAAAAAAAAAAAAAAAAAAAAAAAA
AIIIIIAAAIIIIIIIIIIAAAAAAAAAAAAAAAAAIIIIAAAAAAAAAAAAAAAAAAAAAAAA
AIIIIIAAAIIIIIIIIIIAAIAAAAAAAAAAAAAAIIIIAAAAAAAAAAAAAAAAAAAAAAAA
AIIIIIAAAIIIIIIIIIIAIIAAAAAAAAAAAAAAIIIIAAAAAAAAAAAAAAAAAAAAAAAA
AIIIIIAAAIIIIIIIIIIAIIIAAAAAAAAAAAAAIIIIAAAAAAAAAAAAAAAAAAAAAAAA
AIIIIIAAAIIIIIIIIIIIIIIAAAAAAAAAAAAAIIIIAAAAAAAAAAAAAAAAAAAAAAAA
AIIIIIAAAIIIIIIIIIIIIIIIAAAAAAAAAAAAIIIIAAAAAAAAAAAAAAAAAAAAAAAA
AIIIIIAAAIIIIIIIIIIIIIIIIAAAAAAAAAAAIIIIAAAAAAAAAAAAAAAAAAAAAAAA
AIIIIIAAAIIIIIIIIIIIIIIIIAAAAAAAAAAAIIIIAAAAAAAAAAAIAAAAAAAAAAAA
AIIIIIAAAIIIIIIIIIIIIIIIIAAAAAAAAAAAIIIIAAAAAAAAAAAIIAAAAAAAAAAA
AIIIIIAAAIIIIIIIIIIIIIIIIAAAAAAAAAAAIIIIAAAAAAAAAAAIIIAAAAAAAAAA
AIIIIIAAAIIIIIIIIIIIIIIIIIAAAAAAAAAAIIIIAAAAAAAAAAAIIIAAAAAAAAAA
AIIIIIAAAIIIIIIIIIIIIIIIIIIAAAAAAAAAIIIIAAAAAAAAAAAIIIAAAAAAAAAA
AIIIIIAAAIIIIIIIIIIIIIIIIIIIAAAAAAAAIIIIAAAAAAAAAAAIIIAAAAAAAAAA
AIIIIIAAAIIIIIIIIIIIIIIIIIIIIAAAAAAAIIIIAAAAAAAAAAAIIIAAAAAAAAAA
AIIIIIAAAIIIIIIIIIIIIIIIIIIIIIAAAAAAIIIIAAAAAAAAAAAIIIAAAAAAAAAA
AIIIIIAAAIIIIIIIIIIIIIIIIIIIIIIAAAAAIIIIAAAAAAAAAAAIIIAAAAAAAAAA
AIIIIIAAAIIIIIIIIIIIIIIIIIIIIIIIAAAAIIIIAAAAAAAAAAAIIIAAAAAAAAAA
AIIIIIAAAIIIIIIIIIIIIIIIIIIIIIIIIAAAIIIIAAAAAAAAAAAIIIAAAAAAAAAA
AIIIIIAAAIIIIIIIIIIIIIIIIIIIIIIIIIAAIIIIAAAAAAAAAAAIIIAAAAAAAAAA
AIIIIIAAAIIIIIIIIIIIIIIIIIIIIIIIIIAIIIIIAAAAAAAAAAAIIIAAAAAAAAAA
AIIIIIAAAIIIIIIIIIIIIIIIIIIIIIIIIIIIIIIIAAAAAAAAAAAIIIAAAAAAAAAA
AIIIIIAAAIIIIIIIIIIIIIIIIIIIIIIIIIIIIIIIAAAAAAAAAAAIIIIAAAAAAAAA
AIIIIIAAAIIIIIIIIIIIIIIIIIIIIIIIIIIIIIIIAAAAAAAAAAAIIIIIAAAAAAAA
AIIIIIAAAIIIIIIIIIIIIIIIIIIIIIIIIIIIIIIIIAAAAAAAAAAIIIIIAAAAAAAA
AIIIIIAAAIIIIIIIIIIIIIIIIIIIIIIIIIIIIIIIIIAAAAAAAAAIIIIIAAAAAAAA
AIIIIIAAAIIIIIIIIIIIIIIIIIIIIIIIIIIIIIIIIIIAAAAAAAAIIIIIAAAAAAAA
AIIIIIAAAIIIIIIIIIIIIIIIIIIIIIIIIIIIIIIIIIIIAAAAAAAIIIIIAAAAAAAA
AIIIIIAAAIIIIIIIIIIIIIIIIIIIIIIIIIIIIIIIIIIIIAAAAAAIIIIIAAAAAAAA
AIIIIIAAAIIIIIIIIIIIIIIIIIIIIIIIIIIIIIIIIIIIIIAAAAAIIIIIAAAAAAAA
AIIIIIAAAIIIIIIIIIIIIIIIIIIIIIIIIIIIIIIIIIIIIIIAAAAIIIIIAAAAAAAA
AIIIIIAAAIIIIIIIIIIIIIIIIIIIIIIIIIIIIIIIIIIIIIIIAAAIIIIIAAAAAAAA
AIIIIIAAAIIIIIIIIIIIIIIIIIIIIIIIIIIIIIIIIIIIIIIIIAAIIIIIAAAAAAAA
AIIIIIAAAIIIIIIIIIIIIIIIIIIIIIIIIIIIIIIIIIIIIIIIIIAIIIIIAAAAAAAA
AIIIIIAAAIIIIIIIIIIIIIIIIIIIIIIIIIIIIIIIIIIIIIIIIIIIIIIIAAAAAAAA
AIIIIIAAAIIIIIIIIIIIIIIIIIIIIIIIIIIIIIIIIIIIIIIIIIIIIIIIIAAAAAAA
AIIIIIAAAIIIIIIIIIIIIIIIIIIIIIIIIIIIIIIIIIIIIIIIIIIIIIIIIIAAAAAA
AIIIIIAAAIIIIIIIIIIIIIIIIIIIIIIIIIIIIIIIIIIIIIIIIIIIIIIIIIIAAAAA
AIIIIIAAAIIIIIIIIIIIIIIIIIIIIIIIIIIIIIIIIIIIIIIIIIIIIIIIIIIIAAAA
AIIIIIAAAIIIIIIIIIIIIIIIIIIIIIIIIIIIIIIIIIIIIIIIIIIIIIIIIIIIIAAA
AIIIIIAAAIIIIIIIIIIIIIIIIIIIIIIIIIIIIIIIIIIIIIIIIIIIIIIIIIIIIIAA
AIIIIIAAAIIIIIIIIIIIIIIIIIIIIIIIIIIIIIIIIIIIIIIIIIIIIIIIIIIIIIIA
AIIIIIAAAIIIIIIIIIIIIIIIIIIIIIIIIIIIIIIIIIIIIIIIIIIIIIIIIIIIIIII
IIIIIIIIIIIIIIIIIIIIIIIIIIIIIIIIIIIIIIIIIIIIIIIIIIIIIIIIIIIIIIII
[MLOP] Prefetch Degree Mean: 15.37910
[MLOP] Prefetch Degree SD: 2.26407
[MLOP] Max Score Left Mean (%): 61.05854
[MLOP] Max Score Left SD (%): 22.85829
[MLOP] Max Score Right Mean (%): 98.64189
[MLOP] Max Score Right SD (%): 3.08942

Channel_0_RQ_row_buffer_hit 1173170
Channel_0_RQ_row_buffer_miss 2411889
Channel_0_WQ_row_buffer_hit 292053
Channel_0_WQ_row_buffer_miss 887651
Channel_0_WQ_full 4518
Channel_0_dbus_congested 880637

avg_congested_cycle 1

DRAM_bw_pochs 2136361
DRAM_bw_level_0 2125876
DRAM_bw_level_1 10315
DRAM_bw_level_2 163
DRAM_bw_level_3 7
