*************************************************
   ChampSim Multicore Out-of-Order Simulator
   Last compiled: Dec 11 2024 17:59:53
*************************************************
parsing config file: /home/functionmain/桌面/Pythia/config/bingo.ini

trace_0 /home/functionmain/桌面/Pythia/traces/437.leslie3d-232B.champsimtrace.xz
adding L2C_PREFETCHER: Bingo
Initialize SHIP state
warmup_instructions 100000000
simulation_instructions 500000000
champsim_seed 217
measure_ipc 0
measure_ipc_epoch 1000
measure_dram_bw 1
measure_dram_bw_epoch 256
measure_cache_acc 1
measure_cache_acc_epoch 1024
l1d_perfect 0
l2c_perfect 0
llc_perfect 0
l1d_semi_perfect 0
l2c_semi_perfect 0
llc_semi_perfect 0
semi_perfect_cache_page_buffer_size 64

num_cpus 1
cpu_freq 4000
dram_io_freq 1200
page_size 4096
block_size 64
max_read_per_cycle 8
max_fill_per_cycle 1
dram_channels 1
log2_dram_channels 0
dram_ranks 1
dram_banks 8
dram_rows 65536
dram_columns 128
dram_row_size 8
dram_size 4096
dram_pages 1048576

fetch_width 6
decode_width 6
exec_width 4
lq_width 2
sq_width 2
retire_width 4
scheduler_size 128
branch_mispredict_penalty 20
rob_size 256
lq_size 72
sq_size 56
num_instr_destinations_sparc 4
num_instr_destinations 2
num_instr_sources 4

itlb_set 16
itlb_way 8
itlb_rq_size 16
itlb_wq_size 16
itlb_pq_size 0
itlb_mshr_size 8
itlb_latency 1

dtlb_set 16
dtlb_way 4
dtlb_rq_size 16
dtlb_wq_size 16
dtlb_pq_size 0
dtlb_mshr_size 8
dtlb_latency 1

stlb_set 128
stlb_way 12
stlb_rq_size 32
stlb_wq_size 32
stlb_pq_size 0
stlb_mshr_size 16
stlb_latency 8

l1i_size 32
l1i_set 64
l1i_way 8
l1i_rq_size 64
l1i_wq_size 64
l1i_pq_size 8
l1i_mshr_size 8
l1i_latency 1

l1d_size 32
l1d_set 64
l1d_way 8
l1d_rq_size 64
l1d_wq_size 64
l1d_pq_size 8
l1d_mshr_size 16
l1d_latency 4

l2c_size 256
l2c_set 512
l2c_way 8
l2c_rq_size 32
l2c_wq_size 32
l2c_pq_size 32
l2c_mshr_size 32
l2c_latency 10

llc_size 2048
llc_set 2048
llc_way 16
llc_rq_size 32
llc_wq_size 32
llc_pq_size 32
llc_mshr_size 64
llc_latency 20

dram_channel_width 8
dram_wq_size 64
dram_rq_size 64
tRP 15
tRCD 15
tCAS 12.5
dram_dbus_turn_around_time 30
dram_write_high_wm 56
dram_write_low_wm 48
min_dram_writes_per_switch 16
dram_mtps 1200
dram_dbus_return_time 26

bingo_region_size 2048
bingo_pattern_len 32
bingo_pc_width 16
bingo_min_addr_width 5
bingo_max_addr_width 16
bingo_ft_size 64
bingo_at_size 128
bingo_pht_size 4096
bingo_pht_ways 16
bingo_pf_streamer_size 128
bingo_debug_level 0
bingo_l1d_thresh 1.01
bingo_l2c_thresh 0.8
bingo_llc_thresh 0.05
bingo_pc_address_fill_level L2


Heartbeat CPU  0 instructions:    1000000 cycles:     488191 heartbeat IPC: 2.04838 cumulative IPC: 2.04838 (Simulation time: 0 hr 0 min 2 sec) 
Heartbeat CPU  0 instructions:    2000001 cycles:     995363 heartbeat IPC: 1.97172 cumulative IPC: 2.00932 (Simulation time: 0 hr 0 min 3 sec) 
Heartbeat CPU  0 instructions:    3000003 cycles:    1554436 heartbeat IPC: 1.78868 cumulative IPC: 1.92996 (Simulation time: 0 hr 0 min 5 sec) 
Heartbeat CPU  0 instructions:    4000000 cycles:    2079224 heartbeat IPC: 1.90553 cumulative IPC: 1.92379 (Simulation time: 0 hr 0 min 7 sec) 
Heartbeat CPU  0 instructions:    5000002 cycles:    2567398 heartbeat IPC: 2.04845 cumulative IPC: 1.94750 (Simulation time: 0 hr 0 min 8 sec) 
Heartbeat CPU  0 instructions:    6000003 cycles:    3054998 heartbeat IPC: 2.05086 cumulative IPC: 1.96400 (Simulation time: 0 hr 0 min 10 sec) 
Heartbeat CPU  0 instructions:    7000001 cycles:    3542987 heartbeat IPC: 2.04922 cumulative IPC: 1.97573 (Simulation time: 0 hr 0 min 12 sec) 
Heartbeat CPU  0 instructions:    8000000 cycles:    4031145 heartbeat IPC: 2.04852 cumulative IPC: 1.98455 (Simulation time: 0 hr 0 min 14 sec) 
Heartbeat CPU  0 instructions:    9000000 cycles:    4519734 heartbeat IPC: 2.04671 cumulative IPC: 1.99127 (Simulation time: 0 hr 0 min 15 sec) 
Heartbeat CPU  0 instructions:   10000003 cycles:    5008426 heartbeat IPC: 2.04628 cumulative IPC: 1.99664 (Simulation time: 0 hr 0 min 17 sec) 
Heartbeat CPU  0 instructions:   11000000 cycles:    5497200 heartbeat IPC: 2.04593 cumulative IPC: 2.00102 (Simulation time: 0 hr 0 min 19 sec) 
Heartbeat CPU  0 instructions:   12000000 cycles:    5985647 heartbeat IPC: 2.04731 cumulative IPC: 2.00480 (Simulation time: 0 hr 0 min 21 sec) 
Heartbeat CPU  0 instructions:   13000001 cycles:    6532540 heartbeat IPC: 1.82851 cumulative IPC: 1.99004 (Simulation time: 0 hr 0 min 22 sec) 
Heartbeat CPU  0 instructions:   14000001 cycles:    7088294 heartbeat IPC: 1.79936 cumulative IPC: 1.97509 (Simulation time: 0 hr 0 min 24 sec) 
Heartbeat CPU  0 instructions:   15000000 cycles:    7576438 heartbeat IPC: 2.04857 cumulative IPC: 1.97982 (Simulation time: 0 hr 0 min 26 sec) 
Heartbeat CPU  0 instructions:   16000000 cycles:    8064722 heartbeat IPC: 2.04799 cumulative IPC: 1.98395 (Simulation time: 0 hr 0 min 28 sec) 
Heartbeat CPU  0 instructions:   17000003 cycles:    8552959 heartbeat IPC: 2.04819 cumulative IPC: 1.98762 (Simulation time: 0 hr 0 min 29 sec) 
Heartbeat CPU  0 instructions:   18000003 cycles:    9041223 heartbeat IPC: 2.04807 cumulative IPC: 1.99088 (Simulation time: 0 hr 0 min 31 sec) 
Heartbeat CPU  0 instructions:   19000001 cycles:    9529632 heartbeat IPC: 2.04746 cumulative IPC: 1.99378 (Simulation time: 0 hr 0 min 33 sec) 
Heartbeat CPU  0 instructions:   20000000 cycles:   10018499 heartbeat IPC: 2.04554 cumulative IPC: 1.99631 (Simulation time: 0 hr 0 min 35 sec) 
Heartbeat CPU  0 instructions:   21000000 cycles:   10507427 heartbeat IPC: 2.04529 cumulative IPC: 1.99859 (Simulation time: 0 hr 0 min 36 sec) 
Heartbeat CPU  0 instructions:   22000002 cycles:   10995720 heartbeat IPC: 2.04795 cumulative IPC: 2.00078 (Simulation time: 0 hr 0 min 38 sec) 
Heartbeat CPU  0 instructions:   23000002 cycles:   11510986 heartbeat IPC: 1.94075 cumulative IPC: 1.99809 (Simulation time: 0 hr 0 min 40 sec) 
Heartbeat CPU  0 instructions:   24000000 cycles:   12070214 heartbeat IPC: 1.78818 cumulative IPC: 1.98837 (Simulation time: 0 hr 0 min 41 sec) 
Heartbeat CPU  0 instructions:   25000001 cycles:   12585927 heartbeat IPC: 1.93906 cumulative IPC: 1.98635 (Simulation time: 0 hr 0 min 43 sec) 
Heartbeat CPU  0 instructions:   26000001 cycles:   13074549 heartbeat IPC: 2.04657 cumulative IPC: 1.98860 (Simulation time: 0 hr 0 min 45 sec) 
Heartbeat CPU  0 instructions:   27000000 cycles:   13563057 heartbeat IPC: 2.04705 cumulative IPC: 1.99070 (Simulation time: 0 hr 0 min 47 sec) 
Heartbeat CPU  0 instructions:   28000000 cycles:   14051921 heartbeat IPC: 2.04556 cumulative IPC: 1.99261 (Simulation time: 0 hr 0 min 48 sec) 
Heartbeat CPU  0 instructions:   29000002 cycles:   14540510 heartbeat IPC: 2.04671 cumulative IPC: 1.99443 (Simulation time: 0 hr 0 min 50 sec) 
Heartbeat CPU  0 instructions:   30000001 cycles:   15029278 heartbeat IPC: 2.04596 cumulative IPC: 1.99610 (Simulation time: 0 hr 0 min 52 sec) 
Heartbeat CPU  0 instructions:   31000001 cycles:   15517291 heartbeat IPC: 2.04913 cumulative IPC: 1.99777 (Simulation time: 0 hr 0 min 54 sec) 
Heartbeat CPU  0 instructions:   32000000 cycles:   16005362 heartbeat IPC: 2.04888 cumulative IPC: 1.99933 (Simulation time: 0 hr 0 min 55 sec) 
Heartbeat CPU  0 instructions:   33000002 cycles:   16493652 heartbeat IPC: 2.04797 cumulative IPC: 2.00077 (Simulation time: 0 hr 0 min 57 sec) 
Heartbeat CPU  0 instructions:   34000001 cycles:   17048906 heartbeat IPC: 1.80098 cumulative IPC: 1.99426 (Simulation time: 0 hr 0 min 59 sec) 
Heartbeat CPU  0 instructions:   35000001 cycles:   17595817 heartbeat IPC: 1.82845 cumulative IPC: 1.98911 (Simulation time: 0 hr 1 min 1 sec) 
Heartbeat CPU  0 instructions:   36000000 cycles:   18084212 heartbeat IPC: 2.04752 cumulative IPC: 1.99069 (Simulation time: 0 hr 1 min 2 sec) 
Heartbeat CPU  0 instructions:   37000003 cycles:   18573306 heartbeat IPC: 2.04460 cumulative IPC: 1.99211 (Simulation time: 0 hr 1 min 4 sec) 
Heartbeat CPU  0 instructions:   38000001 cycles:   19061971 heartbeat IPC: 2.04639 cumulative IPC: 1.99350 (Simulation time: 0 hr 1 min 6 sec) 
Heartbeat CPU  0 instructions:   39000002 cycles:   19550538 heartbeat IPC: 2.04680 cumulative IPC: 1.99483 (Simulation time: 0 hr 1 min 8 sec) 
Heartbeat CPU  0 instructions:   40000000 cycles:   20038404 heartbeat IPC: 2.04974 cumulative IPC: 1.99617 (Simulation time: 0 hr 1 min 9 sec) 
Heartbeat CPU  0 instructions:   41000001 cycles:   20526222 heartbeat IPC: 2.04995 cumulative IPC: 1.99745 (Simulation time: 0 hr 1 min 11 sec) 
Heartbeat CPU  0 instructions:   42000001 cycles:   21014270 heartbeat IPC: 2.04898 cumulative IPC: 1.99864 (Simulation time: 0 hr 1 min 13 sec) 
Heartbeat CPU  0 instructions:   43000001 cycles:   21502788 heartbeat IPC: 2.04701 cumulative IPC: 1.99974 (Simulation time: 0 hr 1 min 15 sec) 
Heartbeat CPU  0 instructions:   44000000 cycles:   22026960 heartbeat IPC: 1.90777 cumulative IPC: 1.99755 (Simulation time: 0 hr 1 min 16 sec) 
Heartbeat CPU  0 instructions:   45000000 cycles:   22586606 heartbeat IPC: 1.78684 cumulative IPC: 1.99233 (Simulation time: 0 hr 1 min 18 sec) 
Heartbeat CPU  0 instructions:   46000002 cycles:   23094962 heartbeat IPC: 1.96713 cumulative IPC: 1.99178 (Simulation time: 0 hr 1 min 20 sec) 
Heartbeat CPU  0 instructions:   47000002 cycles:   23583622 heartbeat IPC: 2.04641 cumulative IPC: 1.99291 (Simulation time: 0 hr 1 min 21 sec) 
Heartbeat CPU  0 instructions:   48000000 cycles:   24071784 heartbeat IPC: 2.04850 cumulative IPC: 1.99404 (Simulation time: 0 hr 1 min 23 sec) 
Heartbeat CPU  0 instructions:   49000002 cycles:   24559876 heartbeat IPC: 2.04880 cumulative IPC: 1.99512 (Simulation time: 0 hr 1 min 25 sec) 
Heartbeat CPU  0 instructions:   50000000 cycles:   25048284 heartbeat IPC: 2.04746 cumulative IPC: 1.99614 (Simulation time: 0 hr 1 min 27 sec) 
Heartbeat CPU  0 instructions:   51000002 cycles:   25536458 heartbeat IPC: 2.04845 cumulative IPC: 1.99714 (Simulation time: 0 hr 1 min 28 sec) 
Heartbeat CPU  0 instructions:   52000000 cycles:   26024887 heartbeat IPC: 2.04738 cumulative IPC: 1.99809 (Simulation time: 0 hr 1 min 30 sec) 
Heartbeat CPU  0 instructions:   53000000 cycles:   26513220 heartbeat IPC: 2.04778 cumulative IPC: 1.99900 (Simulation time: 0 hr 1 min 32 sec) 
Heartbeat CPU  0 instructions:   54000000 cycles:   27005817 heartbeat IPC: 2.03006 cumulative IPC: 1.99957 (Simulation time: 0 hr 1 min 34 sec) 
Heartbeat CPU  0 instructions:   55000002 cycles:   27564992 heartbeat IPC: 1.78835 cumulative IPC: 1.99528 (Simulation time: 0 hr 1 min 35 sec) 
Heartbeat CPU  0 instructions:   56000000 cycles:   28105366 heartbeat IPC: 1.85057 cumulative IPC: 1.99250 (Simulation time: 0 hr 1 min 37 sec) 
Heartbeat CPU  0 instructions:   57000000 cycles:   28593334 heartbeat IPC: 2.04931 cumulative IPC: 1.99347 (Simulation time: 0 hr 1 min 39 sec) 
Heartbeat CPU  0 instructions:   58000003 cycles:   29081217 heartbeat IPC: 2.04968 cumulative IPC: 1.99441 (Simulation time: 0 hr 1 min 41 sec) 
Heartbeat CPU  0 instructions:   59000001 cycles:   29569254 heartbeat IPC: 2.04902 cumulative IPC: 1.99532 (Simulation time: 0 hr 1 min 42 sec) 
Heartbeat CPU  0 instructions:   60000000 cycles:   30057601 heartbeat IPC: 2.04772 cumulative IPC: 1.99617 (Simulation time: 0 hr 1 min 44 sec) 
Heartbeat CPU  0 instructions:   61000000 cycles:   30546120 heartbeat IPC: 2.04700 cumulative IPC: 1.99698 (Simulation time: 0 hr 1 min 46 sec) 
Heartbeat CPU  0 instructions:   62000000 cycles:   31034990 heartbeat IPC: 2.04553 cumulative IPC: 1.99775 (Simulation time: 0 hr 1 min 48 sec) 
Heartbeat CPU  0 instructions:   63000002 cycles:   31523548 heartbeat IPC: 2.04684 cumulative IPC: 1.99851 (Simulation time: 0 hr 1 min 49 sec) 
Heartbeat CPU  0 instructions:   64000000 cycles:   32012050 heartbeat IPC: 2.04707 cumulative IPC: 1.99925 (Simulation time: 0 hr 1 min 51 sec) 
Heartbeat CPU  0 instructions:   65000000 cycles:   32543128 heartbeat IPC: 1.88296 cumulative IPC: 1.99735 (Simulation time: 0 hr 1 min 53 sec) 
Heartbeat CPU  0 instructions:   66000001 cycles:   33102382 heartbeat IPC: 1.78810 cumulative IPC: 1.99381 (Simulation time: 0 hr 1 min 54 sec) 
Heartbeat CPU  0 instructions:   67000000 cycles:   33602550 heartbeat IPC: 1.99933 cumulative IPC: 1.99390 (Simulation time: 0 hr 1 min 56 sec) 
Heartbeat CPU  0 instructions:   68000000 cycles:   34090801 heartbeat IPC: 2.04813 cumulative IPC: 1.99467 (Simulation time: 0 hr 1 min 58 sec) 
Heartbeat CPU  0 instructions:   69000001 cycles:   34579255 heartbeat IPC: 2.04728 cumulative IPC: 1.99542 (Simulation time: 0 hr 2 min 0 sec) 
Heartbeat CPU  0 instructions:   70000001 cycles:   35067390 heartbeat IPC: 2.04861 cumulative IPC: 1.99616 (Simulation time: 0 hr 2 min 1 sec) 
Heartbeat CPU  0 instructions:   71000003 cycles:   35556193 heartbeat IPC: 2.04582 cumulative IPC: 1.99684 (Simulation time: 0 hr 2 min 3 sec) 
Heartbeat CPU  0 instructions:   72000000 cycles:   36045057 heartbeat IPC: 2.04555 cumulative IPC: 1.99750 (Simulation time: 0 hr 2 min 5 sec) 
Heartbeat CPU  0 instructions:   73000001 cycles:   36533969 heartbeat IPC: 2.04536 cumulative IPC: 1.99814 (Simulation time: 0 hr 2 min 7 sec) 
Heartbeat CPU  0 instructions:   74000000 cycles:   37021994 heartbeat IPC: 2.04907 cumulative IPC: 1.99881 (Simulation time: 0 hr 2 min 8 sec) 
Heartbeat CPU  0 instructions:   75000001 cycles:   37521630 heartbeat IPC: 2.00146 cumulative IPC: 1.99885 (Simulation time: 0 hr 2 min 10 sec) 
Heartbeat CPU  0 instructions:   76000000 cycles:   38080850 heartbeat IPC: 1.78820 cumulative IPC: 1.99575 (Simulation time: 0 hr 2 min 12 sec) 
Heartbeat CPU  0 instructions:   77000002 cycles:   38611824 heartbeat IPC: 1.88334 cumulative IPC: 1.99421 (Simulation time: 0 hr 2 min 14 sec) 
Heartbeat CPU  0 instructions:   78000001 cycles:   39100177 heartbeat IPC: 2.04770 cumulative IPC: 1.99488 (Simulation time: 0 hr 2 min 15 sec) 
Heartbeat CPU  0 instructions:   79000001 cycles:   39588990 heartbeat IPC: 2.04577 cumulative IPC: 1.99550 (Simulation time: 0 hr 2 min 17 sec) 
Heartbeat CPU  0 instructions:   80000000 cycles:   40077545 heartbeat IPC: 2.04685 cumulative IPC: 1.99613 (Simulation time: 0 hr 2 min 19 sec) 
Heartbeat CPU  0 instructions:   81000003 cycles:   40566276 heartbeat IPC: 2.04612 cumulative IPC: 1.99673 (Simulation time: 0 hr 2 min 21 sec) 
Heartbeat CPU  0 instructions:   82000001 cycles:   41054471 heartbeat IPC: 2.04836 cumulative IPC: 1.99735 (Simulation time: 0 hr 2 min 22 sec) 
Heartbeat CPU  0 instructions:   83000000 cycles:   41542487 heartbeat IPC: 2.04911 cumulative IPC: 1.99795 (Simulation time: 0 hr 2 min 24 sec) 
Heartbeat CPU  0 instructions:   84000000 cycles:   42030605 heartbeat IPC: 2.04868 cumulative IPC: 1.99854 (Simulation time: 0 hr 2 min 26 sec) 
Heartbeat CPU  0 instructions:   85000002 cycles:   42518890 heartbeat IPC: 2.04799 cumulative IPC: 1.99911 (Simulation time: 0 hr 2 min 28 sec) 
Heartbeat CPU  0 instructions:   86000000 cycles:   43059393 heartbeat IPC: 1.85012 cumulative IPC: 1.99724 (Simulation time: 0 hr 2 min 29 sec) 
Heartbeat CPU  0 instructions:   87000002 cycles:   43618838 heartbeat IPC: 1.78749 cumulative IPC: 1.99455 (Simulation time: 0 hr 2 min 31 sec) 
Heartbeat CPU  0 instructions:   88000000 cycles:   44132098 heartbeat IPC: 1.94833 cumulative IPC: 1.99401 (Simulation time: 0 hr 2 min 33 sec) 
Heartbeat CPU  0 instructions:   89000002 cycles:   44659681 heartbeat IPC: 1.89544 cumulative IPC: 1.99285 (Simulation time: 0 hr 2 min 35 sec) 
Heartbeat CPU  0 instructions:   90000002 cycles:   45186653 heartbeat IPC: 1.89763 cumulative IPC: 1.99174 (Simulation time: 0 hr 2 min 36 sec) 
Heartbeat CPU  0 instructions:   91000003 cycles:   45714007 heartbeat IPC: 1.89626 cumulative IPC: 1.99064 (Simulation time: 0 hr 2 min 38 sec) 
Heartbeat CPU  0 instructions:   92000000 cycles:   46240819 heartbeat IPC: 1.89820 cumulative IPC: 1.98958 (Simulation time: 0 hr 2 min 40 sec) 
Heartbeat CPU  0 instructions:   93000001 cycles:   46767927 heartbeat IPC: 1.89715 cumulative IPC: 1.98854 (Simulation time: 0 hr 2 min 42 sec) 
Heartbeat CPU  0 instructions:   94000003 cycles:   47295928 heartbeat IPC: 1.89394 cumulative IPC: 1.98749 (Simulation time: 0 hr 2 min 43 sec) 
Heartbeat CPU  0 instructions:   95000001 cycles:   47822800 heartbeat IPC: 1.89799 cumulative IPC: 1.98650 (Simulation time: 0 hr 2 min 45 sec) 
Heartbeat CPU  0 instructions:   96000000 cycles:   48349760 heartbeat IPC: 1.89768 cumulative IPC: 1.98553 (Simulation time: 0 hr 2 min 47 sec) 
Heartbeat CPU  0 instructions:   97000003 cycles:   48877456 heartbeat IPC: 1.89504 cumulative IPC: 1.98456 (Simulation time: 0 hr 2 min 49 sec) 
Heartbeat CPU  0 instructions:   98000002 cycles:   49403770 heartbeat IPC: 1.90000 cumulative IPC: 1.98365 (Simulation time: 0 hr 2 min 51 sec) 
Heartbeat CPU  0 instructions:   99000002 cycles:   49930569 heartbeat IPC: 1.89826 cumulative IPC: 1.98275 (Simulation time: 0 hr 2 min 52 sec) 
Heartbeat CPU  0 instructions:  100000000 cycles:   50457857 heartbeat IPC: 1.89649 cumulative IPC: 1.98185 (Simulation time: 0 hr 2 min 54 sec) 

Warmup complete CPU  0 instructions:  100000001 cycles:   50457858 (Simulation time: 0 hr 2 min 54 sec) 

Heartbeat CPU  0 instructions:  101000002 cycles:   51436332 heartbeat IPC: 1.02200 cumulative IPC: 1.02200 (Simulation time: 0 hr 2 min 56 sec) 
Heartbeat CPU  0 instructions:  102000002 cycles:   52414129 heartbeat IPC: 1.02271 cumulative IPC: 1.02235 (Simulation time: 0 hr 2 min 58 sec) 
Heartbeat CPU  0 instructions:  103000000 cycles:   53395493 heartbeat IPC: 1.01899 cumulative IPC: 1.02123 (Simulation time: 0 hr 3 min 0 sec) 
Heartbeat CPU  0 instructions:  104000000 cycles:   54391814 heartbeat IPC: 1.00369 cumulative IPC: 1.01679 (Simulation time: 0 hr 3 min 3 sec) 
Heartbeat CPU  0 instructions:  105000002 cycles:   55390370 heartbeat IPC: 1.00145 cumulative IPC: 1.01368 (Simulation time: 0 hr 3 min 5 sec) 
Heartbeat CPU  0 instructions:  106000000 cycles:   56397938 heartbeat IPC: 0.99249 cumulative IPC: 1.01009 (Simulation time: 0 hr 3 min 7 sec) 
Heartbeat CPU  0 instructions:  107000003 cycles:   57401967 heartbeat IPC: 0.99599 cumulative IPC: 1.00805 (Simulation time: 0 hr 3 min 9 sec) 
Heartbeat CPU  0 instructions:  108000000 cycles:   58393916 heartbeat IPC: 1.00811 cumulative IPC: 1.00806 (Simulation time: 0 hr 3 min 11 sec) 
Heartbeat CPU  0 instructions:  109000002 cycles:   59445541 heartbeat IPC: 0.95091 cumulative IPC: 1.00137 (Simulation time: 0 hr 3 min 14 sec) 
Heartbeat CPU  0 instructions:  110000000 cycles:   60435900 heartbeat IPC: 1.00973 cumulative IPC: 1.00220 (Simulation time: 0 hr 3 min 16 sec) 
Heartbeat CPU  0 instructions:  111000000 cycles:   61420973 heartbeat IPC: 1.01515 cumulative IPC: 1.00336 (Simulation time: 0 hr 3 min 18 sec) 
Heartbeat CPU  0 instructions:  112000000 cycles:   62408959 heartbeat IPC: 1.01216 cumulative IPC: 1.00409 (Simulation time: 0 hr 3 min 20 sec) 
Heartbeat CPU  0 instructions:  113000001 cycles:   63410641 heartbeat IPC: 0.99832 cumulative IPC: 1.00365 (Simulation time: 0 hr 3 min 22 sec) 
Heartbeat CPU  0 instructions:  114000000 cycles:   64411195 heartbeat IPC: 0.99945 cumulative IPC: 1.00334 (Simulation time: 0 hr 3 min 24 sec) 
Heartbeat CPU  0 instructions:  115000001 cycles:   65428913 heartbeat IPC: 0.98259 cumulative IPC: 1.00193 (Simulation time: 0 hr 3 min 27 sec) 
Heartbeat CPU  0 instructions:  116000000 cycles:   66430861 heartbeat IPC: 0.99805 cumulative IPC: 1.00169 (Simulation time: 0 hr 3 min 29 sec) 
Heartbeat CPU  0 instructions:  117000003 cycles:   67433592 heartbeat IPC: 0.99728 cumulative IPC: 1.00143 (Simulation time: 0 hr 3 min 31 sec) 
Heartbeat CPU  0 instructions:  118000000 cycles:   68431687 heartbeat IPC: 1.00191 cumulative IPC: 1.00146 (Simulation time: 0 hr 3 min 33 sec) 
Heartbeat CPU  0 instructions:  119000002 cycles:   69467137 heartbeat IPC: 0.96577 cumulative IPC: 0.99951 (Simulation time: 0 hr 3 min 35 sec) 
Heartbeat CPU  0 instructions:  120000000 cycles:   70470042 heartbeat IPC: 0.99710 cumulative IPC: 0.99939 (Simulation time: 0 hr 3 min 38 sec) 
Heartbeat CPU  0 instructions:  121000003 cycles:   71445012 heartbeat IPC: 1.02568 cumulative IPC: 1.00061 (Simulation time: 0 hr 3 min 40 sec) 
Heartbeat CPU  0 instructions:  122000003 cycles:   72423506 heartbeat IPC: 1.02198 cumulative IPC: 1.00156 (Simulation time: 0 hr 3 min 42 sec) 
Heartbeat CPU  0 instructions:  123000000 cycles:   73402960 heartbeat IPC: 1.02097 cumulative IPC: 1.00239 (Simulation time: 0 hr 3 min 44 sec) 
Heartbeat CPU  0 instructions:  124000000 cycles:   74386680 heartbeat IPC: 1.01655 cumulative IPC: 1.00297 (Simulation time: 0 hr 3 min 46 sec) 
Heartbeat CPU  0 instructions:  125000003 cycles:   75396626 heartbeat IPC: 0.99015 cumulative IPC: 1.00246 (Simulation time: 0 hr 3 min 48 sec) 
Heartbeat CPU  0 instructions:  126000000 cycles:   76389075 heartbeat IPC: 1.00761 cumulative IPC: 1.00265 (Simulation time: 0 hr 3 min 50 sec) 
Heartbeat CPU  0 instructions:  127000000 cycles:   77382559 heartbeat IPC: 1.00656 cumulative IPC: 1.00280 (Simulation time: 0 hr 3 min 53 sec) 
Heartbeat CPU  0 instructions:  128000000 cycles:   78374708 heartbeat IPC: 1.00791 cumulative IPC: 1.00298 (Simulation time: 0 hr 3 min 55 sec) 
Heartbeat CPU  0 instructions:  129000002 cycles:   79373588 heartbeat IPC: 1.00112 cumulative IPC: 1.00291 (Simulation time: 0 hr 3 min 57 sec) 
Heartbeat CPU  0 instructions:  130000001 cycles:   80402494 heartbeat IPC: 0.97191 cumulative IPC: 1.00185 (Simulation time: 0 hr 3 min 59 sec) 
Heartbeat CPU  0 instructions:  131000002 cycles:   81384179 heartbeat IPC: 1.01866 cumulative IPC: 1.00238 (Simulation time: 0 hr 4 min 1 sec) 
Heartbeat CPU  0 instructions:  132000000 cycles:   82362013 heartbeat IPC: 1.02267 cumulative IPC: 1.00300 (Simulation time: 0 hr 4 min 3 sec) 
Heartbeat CPU  0 instructions:  133000000 cycles:   83351698 heartbeat IPC: 1.01042 cumulative IPC: 1.00323 (Simulation time: 0 hr 4 min 6 sec) 
Heartbeat CPU  0 instructions:  134000001 cycles:   84341096 heartbeat IPC: 1.01072 cumulative IPC: 1.00345 (Simulation time: 0 hr 4 min 8 sec) 
Heartbeat CPU  0 instructions:  135000002 cycles:   85335989 heartbeat IPC: 1.00513 cumulative IPC: 1.00349 (Simulation time: 0 hr 4 min 10 sec) 
Heartbeat CPU  0 instructions:  136000000 cycles:   86330353 heartbeat IPC: 1.00567 cumulative IPC: 1.00355 (Simulation time: 0 hr 4 min 12 sec) 
Heartbeat CPU  0 instructions:  137000001 cycles:   87328244 heartbeat IPC: 1.00211 cumulative IPC: 1.00352 (Simulation time: 0 hr 4 min 14 sec) 
Heartbeat CPU  0 instructions:  138000003 cycles:   88319841 heartbeat IPC: 1.00848 cumulative IPC: 1.00365 (Simulation time: 0 hr 4 min 16 sec) 
Heartbeat CPU  0 instructions:  139000000 cycles:   89311929 heartbeat IPC: 1.00797 cumulative IPC: 1.00376 (Simulation time: 0 hr 4 min 19 sec) 
Heartbeat CPU  0 instructions:  140000000 cycles:   91078943 heartbeat IPC: 0.56593 cumulative IPC: 0.98471 (Simulation time: 0 hr 4 min 21 sec) 
Heartbeat CPU  0 instructions:  141000001 cycles:   92022869 heartbeat IPC: 1.05941 cumulative IPC: 0.98641 (Simulation time: 0 hr 4 min 23 sec) 
Heartbeat CPU  0 instructions:  142000001 cycles:   92940078 heartbeat IPC: 1.09026 cumulative IPC: 0.98865 (Simulation time: 0 hr 4 min 25 sec) 
Heartbeat CPU  0 instructions:  143000000 cycles:   93847412 heartbeat IPC: 1.10213 cumulative IPC: 0.99102 (Simulation time: 0 hr 4 min 27 sec) 
Heartbeat CPU  0 instructions:  144000000 cycles:   94749995 heartbeat IPC: 1.10793 cumulative IPC: 0.99340 (Simulation time: 0 hr 4 min 29 sec) 
Heartbeat CPU  0 instructions:  145000001 cycles:   95653966 heartbeat IPC: 1.10623 cumulative IPC: 0.99566 (Simulation time: 0 hr 4 min 31 sec) 
Heartbeat CPU  0 instructions:  146000001 cycles:   96559025 heartbeat IPC: 1.10490 cumulative IPC: 0.99781 (Simulation time: 0 hr 4 min 33 sec) 
Heartbeat CPU  0 instructions:  147000002 cycles:   97996152 heartbeat IPC: 0.69583 cumulative IPC: 0.98868 (Simulation time: 0 hr 4 min 36 sec) 
Heartbeat CPU  0 instructions:  148000000 cycles:   99013972 heartbeat IPC: 0.98249 cumulative IPC: 0.98855 (Simulation time: 0 hr 4 min 38 sec) 
Heartbeat CPU  0 instructions:  149000000 cycles:   99895595 heartbeat IPC: 1.13427 cumulative IPC: 0.99115 (Simulation time: 0 hr 4 min 40 sec) 
Heartbeat CPU  0 instructions:  150000001 cycles:  100753785 heartbeat IPC: 1.16524 cumulative IPC: 0.99412 (Simulation time: 0 hr 4 min 42 sec) 
Heartbeat CPU  0 instructions:  151000002 cycles:  101651075 heartbeat IPC: 1.11447 cumulative IPC: 0.99623 (Simulation time: 0 hr 4 min 44 sec) 
Heartbeat CPU  0 instructions:  152000000 cycles:  102512160 heartbeat IPC: 1.16132 cumulative IPC: 0.99896 (Simulation time: 0 hr 4 min 46 sec) 
Heartbeat CPU  0 instructions:  153000002 cycles:  103386609 heartbeat IPC: 1.14358 cumulative IPC: 1.00135 (Simulation time: 0 hr 4 min 48 sec) 
Heartbeat CPU  0 instructions:  154000000 cycles:  104267644 heartbeat IPC: 1.13503 cumulative IPC: 1.00353 (Simulation time: 0 hr 4 min 50 sec) 
Heartbeat CPU  0 instructions:  155000003 cycles:  106001229 heartbeat IPC: 0.57684 cumulative IPC: 0.99022 (Simulation time: 0 hr 4 min 52 sec) 
Heartbeat CPU  0 instructions:  156000000 cycles:  107005546 heartbeat IPC: 0.99570 cumulative IPC: 0.99031 (Simulation time: 0 hr 4 min 54 sec) 
Heartbeat CPU  0 instructions:  157000003 cycles:  107945673 heartbeat IPC: 1.06369 cumulative IPC: 0.99151 (Simulation time: 0 hr 4 min 56 sec) 
Heartbeat CPU  0 instructions:  158000003 cycles:  108937619 heartbeat IPC: 1.00812 cumulative IPC: 0.99180 (Simulation time: 0 hr 4 min 58 sec) 
Heartbeat CPU  0 instructions:  159000003 cycles:  109927717 heartbeat IPC: 1.01000 cumulative IPC: 0.99210 (Simulation time: 0 hr 5 min 0 sec) 
Heartbeat CPU  0 instructions:  160000000 cycles:  110898429 heartbeat IPC: 1.03017 cumulative IPC: 0.99271 (Simulation time: 0 hr 5 min 2 sec) 
Heartbeat CPU  0 instructions:  161000001 cycles:  111850981 heartbeat IPC: 1.04981 cumulative IPC: 0.99360 (Simulation time: 0 hr 5 min 4 sec) 
Heartbeat CPU  0 instructions:  162000001 cycles:  113380786 heartbeat IPC: 0.65368 cumulative IPC: 0.98533 (Simulation time: 0 hr 5 min 7 sec) 
Heartbeat CPU  0 instructions:  163000002 cycles:  114617810 heartbeat IPC: 0.80839 cumulative IPC: 0.98192 (Simulation time: 0 hr 5 min 9 sec) 
Heartbeat CPU  0 instructions:  164000000 cycles:  115848769 heartbeat IPC: 0.81237 cumulative IPC: 0.97873 (Simulation time: 0 hr 5 min 12 sec) 
Heartbeat CPU  0 instructions:  165000000 cycles:  117055677 heartbeat IPC: 0.82856 cumulative IPC: 0.97601 (Simulation time: 0 hr 5 min 14 sec) 
Heartbeat CPU  0 instructions:  166000002 cycles:  118264853 heartbeat IPC: 0.82701 cumulative IPC: 0.97335 (Simulation time: 0 hr 5 min 16 sec) 
Heartbeat CPU  0 instructions:  167000002 cycles:  119481688 heartbeat IPC: 0.82180 cumulative IPC: 0.97068 (Simulation time: 0 hr 5 min 19 sec) 
Heartbeat CPU  0 instructions:  168000000 cycles:  120724349 heartbeat IPC: 0.80472 cumulative IPC: 0.96774 (Simulation time: 0 hr 5 min 21 sec) 
Heartbeat CPU  0 instructions:  169000002 cycles:  121934667 heartbeat IPC: 0.82623 cumulative IPC: 0.96535 (Simulation time: 0 hr 5 min 24 sec) 
Heartbeat CPU  0 instructions:  170000002 cycles:  123152385 heartbeat IPC: 0.82121 cumulative IPC: 0.96293 (Simulation time: 0 hr 5 min 26 sec) 
Heartbeat CPU  0 instructions:  171000003 cycles:  124365829 heartbeat IPC: 0.82410 cumulative IPC: 0.96065 (Simulation time: 0 hr 5 min 29 sec) 
Heartbeat CPU  0 instructions:  172000000 cycles:  125593855 heartbeat IPC: 0.81431 cumulative IPC: 0.95826 (Simulation time: 0 hr 5 min 31 sec) 
Heartbeat CPU  0 instructions:  173000003 cycles:  126802257 heartbeat IPC: 0.82754 cumulative IPC: 0.95619 (Simulation time: 0 hr 5 min 33 sec) 
Heartbeat CPU  0 instructions:  174000000 cycles:  128010457 heartbeat IPC: 0.82768 cumulative IPC: 0.95419 (Simulation time: 0 hr 5 min 36 sec) 
Heartbeat CPU  0 instructions:  175000000 cycles:  129219080 heartbeat IPC: 0.82739 cumulative IPC: 0.95225 (Simulation time: 0 hr 5 min 38 sec) 
Heartbeat CPU  0 instructions:  176000000 cycles:  130418341 heartbeat IPC: 0.83385 cumulative IPC: 0.95047 (Simulation time: 0 hr 5 min 41 sec) 
Heartbeat CPU  0 instructions:  177000003 cycles:  131633261 heartbeat IPC: 0.82310 cumulative IPC: 0.94856 (Simulation time: 0 hr 5 min 43 sec) 
Heartbeat CPU  0 instructions:  178000001 cycles:  132834926 heartbeat IPC: 0.83218 cumulative IPC: 0.94687 (Simulation time: 0 hr 5 min 46 sec) 
Heartbeat CPU  0 instructions:  179000000 cycles:  134056522 heartbeat IPC: 0.81860 cumulative IPC: 0.94499 (Simulation time: 0 hr 5 min 48 sec) 
Heartbeat CPU  0 instructions:  180000000 cycles:  135271009 heartbeat IPC: 0.82339 cumulative IPC: 0.94325 (Simulation time: 0 hr 5 min 50 sec) 
Heartbeat CPU  0 instructions:  181000000 cycles:  136512997 heartbeat IPC: 0.80516 cumulative IPC: 0.94126 (Simulation time: 0 hr 5 min 53 sec) 
Heartbeat CPU  0 instructions:  182000001 cycles:  137731768 heartbeat IPC: 0.82050 cumulative IPC: 0.93957 (Simulation time: 0 hr 5 min 55 sec) 
Heartbeat CPU  0 instructions:  183000003 cycles:  138947924 heartbeat IPC: 0.82226 cumulative IPC: 0.93796 (Simulation time: 0 hr 5 min 58 sec) 
Heartbeat CPU  0 instructions:  184000000 cycles:  140163986 heartbeat IPC: 0.82232 cumulative IPC: 0.93639 (Simulation time: 0 hr 6 min 0 sec) 
Heartbeat CPU  0 instructions:  185000000 cycles:  141397798 heartbeat IPC: 0.81050 cumulative IPC: 0.93468 (Simulation time: 0 hr 6 min 3 sec) 
Heartbeat CPU  0 instructions:  186000002 cycles:  142612931 heartbeat IPC: 0.82296 cumulative IPC: 0.93321 (Simulation time: 0 hr 6 min 5 sec) 
Heartbeat CPU  0 instructions:  187000001 cycles:  143830453 heartbeat IPC: 0.82134 cumulative IPC: 0.93175 (Simulation time: 0 hr 6 min 7 sec) 
Heartbeat CPU  0 instructions:  188000000 cycles:  145047596 heartbeat IPC: 0.82160 cumulative IPC: 0.93033 (Simulation time: 0 hr 6 min 10 sec) 
Heartbeat CPU  0 instructions:  189000001 cycles:  146287381 heartbeat IPC: 0.80659 cumulative IPC: 0.92873 (Simulation time: 0 hr 6 min 12 sec) 
Heartbeat CPU  0 instructions:  190000002 cycles:  147509212 heartbeat IPC: 0.81844 cumulative IPC: 0.92734 (Simulation time: 0 hr 6 min 15 sec) 
Heartbeat CPU  0 instructions:  191000001 cycles:  148728619 heartbeat IPC: 0.82007 cumulative IPC: 0.92601 (Simulation time: 0 hr 6 min 17 sec) 
Heartbeat CPU  0 instructions:  192000000 cycles:  149943604 heartbeat IPC: 0.82305 cumulative IPC: 0.92476 (Simulation time: 0 hr 6 min 20 sec) 
Heartbeat CPU  0 instructions:  193000003 cycles:  151158994 heartbeat IPC: 0.82278 cumulative IPC: 0.92352 (Simulation time: 0 hr 6 min 22 sec) 
Heartbeat CPU  0 instructions:  194000002 cycles:  152601931 heartbeat IPC: 0.69303 cumulative IPC: 0.92027 (Simulation time: 0 hr 6 min 24 sec) 
Heartbeat CPU  0 instructions:  195000001 cycles:  154009852 heartbeat IPC: 0.71027 cumulative IPC: 0.91741 (Simulation time: 0 hr 6 min 27 sec) 
Heartbeat CPU  0 instructions:  196000000 cycles:  155129904 heartbeat IPC: 0.89281 cumulative IPC: 0.91715 (Simulation time: 0 hr 6 min 29 sec) 
Heartbeat CPU  0 instructions:  197000003 cycles:  156095964 heartbeat IPC: 1.03514 cumulative IPC: 0.91823 (Simulation time: 0 hr 6 min 31 sec) 
Heartbeat CPU  0 instructions:  198000000 cycles:  156985760 heartbeat IPC: 1.12385 cumulative IPC: 0.91995 (Simulation time: 0 hr 6 min 33 sec) 
Heartbeat CPU  0 instructions:  199000000 cycles:  157938446 heartbeat IPC: 1.04966 cumulative IPC: 0.92110 (Simulation time: 0 hr 6 min 35 sec) 
Heartbeat CPU  0 instructions:  200000000 cycles:  158871522 heartbeat IPC: 1.07172 cumulative IPC: 0.92239 (Simulation time: 0 hr 6 min 37 sec) 
Heartbeat CPU  0 instructions:  201000002 cycles:  159776292 heartbeat IPC: 1.10526 cumulative IPC: 0.92391 (Simulation time: 0 hr 6 min 39 sec) 
Heartbeat CPU  0 instructions:  202000000 cycles:  160719661 heartbeat IPC: 1.06003 cumulative IPC: 0.92507 (Simulation time: 0 hr 6 min 41 sec) 
Heartbeat CPU  0 instructions:  203000001 cycles:  161610144 heartbeat IPC: 1.12299 cumulative IPC: 0.92666 (Simulation time: 0 hr 6 min 43 sec) 
Heartbeat CPU  0 instructions:  204000000 cycles:  162534850 heartbeat IPC: 1.08142 cumulative IPC: 0.92793 (Simulation time: 0 hr 6 min 46 sec) 
Heartbeat CPU  0 instructions:  205000002 cycles:  163465881 heartbeat IPC: 1.07408 cumulative IPC: 0.92914 (Simulation time: 0 hr 6 min 48 sec) 
Heartbeat CPU  0 instructions:  206000003 cycles:  164341369 heartbeat IPC: 1.14222 cumulative IPC: 0.93078 (Simulation time: 0 hr 6 min 50 sec) 
Heartbeat CPU  0 instructions:  207000001 cycles:  165249966 heartbeat IPC: 1.10060 cumulative IPC: 0.93212 (Simulation time: 0 hr 6 min 52 sec) 
Heartbeat CPU  0 instructions:  208000000 cycles:  166161830 heartbeat IPC: 1.09665 cumulative IPC: 0.93342 (Simulation time: 0 hr 6 min 54 sec) 
Heartbeat CPU  0 instructions:  209000001 cycles:  167068674 heartbeat IPC: 1.10273 cumulative IPC: 0.93473 (Simulation time: 0 hr 6 min 56 sec) 
Heartbeat CPU  0 instructions:  210000003 cycles:  167999624 heartbeat IPC: 1.07417 cumulative IPC: 0.93584 (Simulation time: 0 hr 6 min 58 sec) 
Heartbeat CPU  0 instructions:  211000002 cycles:  168892141 heartbeat IPC: 1.12043 cumulative IPC: 0.93723 (Simulation time: 0 hr 7 min 1 sec) 
Heartbeat CPU  0 instructions:  212000000 cycles:  169793327 heartbeat IPC: 1.10965 cumulative IPC: 0.93853 (Simulation time: 0 hr 7 min 3 sec) 
Heartbeat CPU  0 instructions:  213000003 cycles:  170705704 heartbeat IPC: 1.09604 cumulative IPC: 0.93973 (Simulation time: 0 hr 7 min 5 sec) 
Heartbeat CPU  0 instructions:  214000001 cycles:  171595686 heartbeat IPC: 1.12362 cumulative IPC: 0.94108 (Simulation time: 0 hr 7 min 7 sec) 
Heartbeat CPU  0 instructions:  215000002 cycles:  172528537 heartbeat IPC: 1.07198 cumulative IPC: 0.94208 (Simulation time: 0 hr 7 min 9 sec) 
Heartbeat CPU  0 instructions:  216000000 cycles:  173416756 heartbeat IPC: 1.12585 cumulative IPC: 0.94340 (Simulation time: 0 hr 7 min 11 sec) 
Heartbeat CPU  0 instructions:  217000002 cycles:  174323931 heartbeat IPC: 1.10233 cumulative IPC: 0.94457 (Simulation time: 0 hr 7 min 13 sec) 
Heartbeat CPU  0 instructions:  218000000 cycles:  175245979 heartbeat IPC: 1.08454 cumulative IPC: 0.94560 (Simulation time: 0 hr 7 min 15 sec) 
Heartbeat CPU  0 instructions:  219000003 cycles:  176140973 heartbeat IPC: 1.11733 cumulative IPC: 0.94683 (Simulation time: 0 hr 7 min 17 sec) 
Heartbeat CPU  0 instructions:  220000000 cycles:  177058564 heartbeat IPC: 1.08981 cumulative IPC: 0.94786 (Simulation time: 0 hr 7 min 19 sec) 
Heartbeat CPU  0 instructions:  221000002 cycles:  177955368 heartbeat IPC: 1.11507 cumulative IPC: 0.94904 (Simulation time: 0 hr 7 min 21 sec) 
Heartbeat CPU  0 instructions:  222000001 cycles:  178851326 heartbeat IPC: 1.11612 cumulative IPC: 0.95020 (Simulation time: 0 hr 7 min 23 sec) 
Heartbeat CPU  0 instructions:  223000000 cycles:  179761246 heartbeat IPC: 1.09900 cumulative IPC: 0.95125 (Simulation time: 0 hr 7 min 25 sec) 
Heartbeat CPU  0 instructions:  224000000 cycles:  180668838 heartbeat IPC: 1.10182 cumulative IPC: 0.95230 (Simulation time: 0 hr 7 min 27 sec) 
Heartbeat CPU  0 instructions:  225000001 cycles:  181559482 heartbeat IPC: 1.12278 cumulative IPC: 0.95346 (Simulation time: 0 hr 7 min 30 sec) 
Heartbeat CPU  0 instructions:  226000003 cycles:  182467985 heartbeat IPC: 1.10071 cumulative IPC: 0.95447 (Simulation time: 0 hr 7 min 32 sec) 
Heartbeat CPU  0 instructions:  227000001 cycles:  183362577 heartbeat IPC: 1.11783 cumulative IPC: 0.95557 (Simulation time: 0 hr 7 min 34 sec) 
Heartbeat CPU  0 instructions:  228000000 cycles:  184272629 heartbeat IPC: 1.09884 cumulative IPC: 0.95655 (Simulation time: 0 hr 7 min 36 sec) 
Heartbeat CPU  0 instructions:  229000002 cycles:  185186942 heartbeat IPC: 1.09372 cumulative IPC: 0.95748 (Simulation time: 0 hr 7 min 38 sec) 
Heartbeat CPU  0 instructions:  230000002 cycles:  186071798 heartbeat IPC: 1.13013 cumulative IPC: 0.95860 (Simulation time: 0 hr 7 min 40 sec) 
Heartbeat CPU  0 instructions:  231000001 cycles:  186978414 heartbeat IPC: 1.10300 cumulative IPC: 0.95956 (Simulation time: 0 hr 7 min 42 sec) 
Heartbeat CPU  0 instructions:  232000000 cycles:  187871693 heartbeat IPC: 1.11947 cumulative IPC: 0.96060 (Simulation time: 0 hr 7 min 44 sec) 
Heartbeat CPU  0 instructions:  233000000 cycles:  188765070 heartbeat IPC: 1.11935 cumulative IPC: 0.96163 (Simulation time: 0 hr 7 min 46 sec) 
Heartbeat CPU  0 instructions:  234000002 cycles:  189678092 heartbeat IPC: 1.09527 cumulative IPC: 0.96250 (Simulation time: 0 hr 7 min 48 sec) 
Heartbeat CPU  0 instructions:  235000003 cycles:  190566613 heartbeat IPC: 1.12547 cumulative IPC: 0.96354 (Simulation time: 0 hr 7 min 50 sec) 
Heartbeat CPU  0 instructions:  236000000 cycles:  191477079 heartbeat IPC: 1.09834 cumulative IPC: 0.96441 (Simulation time: 0 hr 7 min 52 sec) 
Heartbeat CPU  0 instructions:  237000000 cycles:  192374446 heartbeat IPC: 1.11437 cumulative IPC: 0.96536 (Simulation time: 0 hr 7 min 55 sec) 
Heartbeat CPU  0 instructions:  238000001 cycles:  193255573 heartbeat IPC: 1.13491 cumulative IPC: 0.96640 (Simulation time: 0 hr 7 min 57 sec) 
Heartbeat CPU  0 instructions:  239000003 cycles:  194154827 heartbeat IPC: 1.11204 cumulative IPC: 0.96731 (Simulation time: 0 hr 7 min 59 sec) 
Heartbeat CPU  0 instructions:  240000000 cycles:  195050458 heartbeat IPC: 1.11653 cumulative IPC: 0.96824 (Simulation time: 0 hr 8 min 1 sec) 
Heartbeat CPU  0 instructions:  241000000 cycles:  195959360 heartbeat IPC: 1.10023 cumulative IPC: 0.96906 (Simulation time: 0 hr 8 min 3 sec) 
Heartbeat CPU  0 instructions:  242000000 cycles:  196859399 heartbeat IPC: 1.11106 cumulative IPC: 0.96994 (Simulation time: 0 hr 8 min 5 sec) 
Heartbeat CPU  0 instructions:  243000003 cycles:  197742229 heartbeat IPC: 1.13272 cumulative IPC: 0.97091 (Simulation time: 0 hr 8 min 7 sec) 
Heartbeat CPU  0 instructions:  244000000 cycles:  198643050 heartbeat IPC: 1.11010 cumulative IPC: 0.97176 (Simulation time: 0 hr 8 min 9 sec) 
Heartbeat CPU  0 instructions:  245000000 cycles:  199539724 heartbeat IPC: 1.11523 cumulative IPC: 0.97262 (Simulation time: 0 hr 8 min 11 sec) 
Heartbeat CPU  0 instructions:  246000002 cycles:  200451867 heartbeat IPC: 1.09632 cumulative IPC: 0.97337 (Simulation time: 0 hr 8 min 13 sec) 
Heartbeat CPU  0 instructions:  247000000 cycles:  201365366 heartbeat IPC: 1.09469 cumulative IPC: 0.97411 (Simulation time: 0 hr 8 min 15 sec) 
Heartbeat CPU  0 instructions:  248000000 cycles:  202234210 heartbeat IPC: 1.15095 cumulative IPC: 0.97512 (Simulation time: 0 hr 8 min 17 sec) 
Heartbeat CPU  0 instructions:  249000000 cycles:  203145364 heartbeat IPC: 1.09751 cumulative IPC: 0.97585 (Simulation time: 0 hr 8 min 19 sec) 
Heartbeat CPU  0 instructions:  250000001 cycles:  204046586 heartbeat IPC: 1.10961 cumulative IPC: 0.97663 (Simulation time: 0 hr 8 min 21 sec) 
Heartbeat CPU  0 instructions:  251000003 cycles:  204956838 heartbeat IPC: 1.09860 cumulative IPC: 0.97735 (Simulation time: 0 hr 8 min 23 sec) 
Heartbeat CPU  0 instructions:  252000000 cycles:  205864820 heartbeat IPC: 1.10134 cumulative IPC: 0.97808 (Simulation time: 0 hr 8 min 26 sec) 
Heartbeat CPU  0 instructions:  253000000 cycles:  206736861 heartbeat IPC: 1.14674 cumulative IPC: 0.97902 (Simulation time: 0 hr 8 min 28 sec) 
Heartbeat CPU  0 instructions:  254000000 cycles:  207652247 heartbeat IPC: 1.09244 cumulative IPC: 0.97968 (Simulation time: 0 hr 8 min 30 sec) 
Heartbeat CPU  0 instructions:  255000003 cycles:  208561304 heartbeat IPC: 1.10004 cumulative IPC: 0.98037 (Simulation time: 0 hr 8 min 32 sec) 
Heartbeat CPU  0 instructions:  256000000 cycles:  209462253 heartbeat IPC: 1.10994 cumulative IPC: 0.98110 (Simulation time: 0 hr 8 min 34 sec) 
Heartbeat CPU  0 instructions:  257000003 cycles:  210372035 heartbeat IPC: 1.09917 cumulative IPC: 0.98178 (Simulation time: 0 hr 8 min 36 sec) 
Heartbeat CPU  0 instructions:  258000000 cycles:  211251588 heartbeat IPC: 1.13694 cumulative IPC: 0.98263 (Simulation time: 0 hr 8 min 38 sec) 
Heartbeat CPU  0 instructions:  259000003 cycles:  212158987 heartbeat IPC: 1.10205 cumulative IPC: 0.98330 (Simulation time: 0 hr 8 min 40 sec) 
Heartbeat CPU  0 instructions:  260000000 cycles:  213062657 heartbeat IPC: 1.10660 cumulative IPC: 0.98398 (Simulation time: 0 hr 8 min 42 sec) 
Heartbeat CPU  0 instructions:  261000001 cycles:  213961493 heartbeat IPC: 1.11255 cumulative IPC: 0.98469 (Simulation time: 0 hr 8 min 44 sec) 
Heartbeat CPU  0 instructions:  262000000 cycles:  214882840 heartbeat IPC: 1.08537 cumulative IPC: 0.98525 (Simulation time: 0 hr 8 min 46 sec) 
Heartbeat CPU  0 instructions:  263000000 cycles:  215766896 heartbeat IPC: 1.13115 cumulative IPC: 0.98603 (Simulation time: 0 hr 8 min 48 sec) 
Heartbeat CPU  0 instructions:  264000000 cycles:  216671727 heartbeat IPC: 1.10518 cumulative IPC: 0.98668 (Simulation time: 0 hr 8 min 50 sec) 
Heartbeat CPU  0 instructions:  265000002 cycles:  217587562 heartbeat IPC: 1.09190 cumulative IPC: 0.98726 (Simulation time: 0 hr 8 min 52 sec) 
Heartbeat CPU  0 instructions:  266000001 cycles:  218465651 heartbeat IPC: 1.13884 cumulative IPC: 0.98805 (Simulation time: 0 hr 8 min 54 sec) 
Heartbeat CPU  0 instructions:  267000000 cycles:  219400089 heartbeat IPC: 1.07016 cumulative IPC: 0.98850 (Simulation time: 0 hr 8 min 57 sec) 
Heartbeat CPU  0 instructions:  268000000 cycles:  220308596 heartbeat IPC: 1.10071 cumulative IPC: 0.98910 (Simulation time: 0 hr 8 min 59 sec) 
Heartbeat CPU  0 instructions:  269000003 cycles:  221213229 heartbeat IPC: 1.10542 cumulative IPC: 0.98972 (Simulation time: 0 hr 9 min 1 sec) 
Heartbeat CPU  0 instructions:  270000002 cycles:  222136156 heartbeat IPC: 1.08351 cumulative IPC: 0.99022 (Simulation time: 0 hr 9 min 3 sec) 
Heartbeat CPU  0 instructions:  271000000 cycles:  223015951 heartbeat IPC: 1.13663 cumulative IPC: 0.99097 (Simulation time: 0 hr 9 min 5 sec) 
Heartbeat CPU  0 instructions:  272000000 cycles:  223951472 heartbeat IPC: 1.06892 cumulative IPC: 0.99139 (Simulation time: 0 hr 9 min 7 sec) 
Heartbeat CPU  0 instructions:  273000002 cycles:  224861766 heartbeat IPC: 1.09855 cumulative IPC: 0.99195 (Simulation time: 0 hr 9 min 9 sec) 
Heartbeat CPU  0 instructions:  274000002 cycles:  225755414 heartbeat IPC: 1.11901 cumulative IPC: 0.99260 (Simulation time: 0 hr 9 min 11 sec) 
Heartbeat CPU  0 instructions:  275000001 cycles:  226685290 heartbeat IPC: 1.07541 cumulative IPC: 0.99303 (Simulation time: 0 hr 9 min 13 sec) 
Heartbeat CPU  0 instructions:  276000000 cycles:  227577481 heartbeat IPC: 1.12084 cumulative IPC: 0.99368 (Simulation time: 0 hr 9 min 15 sec) 
Heartbeat CPU  0 instructions:  277000003 cycles:  228515036 heartbeat IPC: 1.06661 cumulative IPC: 0.99406 (Simulation time: 0 hr 9 min 17 sec) 
Heartbeat CPU  0 instructions:  278000002 cycles:  229439099 heartbeat IPC: 1.08218 cumulative IPC: 0.99452 (Simulation time: 0 hr 9 min 19 sec) 
Heartbeat CPU  0 instructions:  279000003 cycles:  230322753 heartbeat IPC: 1.13167 cumulative IPC: 0.99519 (Simulation time: 0 hr 9 min 21 sec) 
Heartbeat CPU  0 instructions:  280000000 cycles:  231241298 heartbeat IPC: 1.08868 cumulative IPC: 0.99567 (Simulation time: 0 hr 9 min 24 sec) 
Heartbeat CPU  0 instructions:  281000002 cycles:  232143463 heartbeat IPC: 1.10845 cumulative IPC: 0.99623 (Simulation time: 0 hr 9 min 26 sec) 
Heartbeat CPU  0 instructions:  282000001 cycles:  233067735 heartbeat IPC: 1.08193 cumulative IPC: 0.99666 (Simulation time: 0 hr 9 min 28 sec) 
Heartbeat CPU  0 instructions:  283000002 cycles:  234006278 heartbeat IPC: 1.06548 cumulative IPC: 0.99701 (Simulation time: 0 hr 9 min 30 sec) 
Heartbeat CPU  0 instructions:  284000000 cycles:  234878127 heartbeat IPC: 1.14699 cumulative IPC: 0.99772 (Simulation time: 0 hr 9 min 32 sec) 
Heartbeat CPU  0 instructions:  285000002 cycles:  235796729 heartbeat IPC: 1.08861 cumulative IPC: 0.99817 (Simulation time: 0 hr 9 min 34 sec) 
Heartbeat CPU  0 instructions:  286000000 cycles:  236710362 heartbeat IPC: 1.09453 cumulative IPC: 0.99864 (Simulation time: 0 hr 9 min 36 sec) 
Heartbeat CPU  0 instructions:  287000001 cycles:  237609318 heartbeat IPC: 1.11240 cumulative IPC: 0.99919 (Simulation time: 0 hr 9 min 38 sec) 
Heartbeat CPU  0 instructions:  288000000 cycles:  238546566 heartbeat IPC: 1.06695 cumulative IPC: 0.99953 (Simulation time: 0 hr 9 min 40 sec) 
Heartbeat CPU  0 instructions:  289000000 cycles:  239425032 heartbeat IPC: 1.13835 cumulative IPC: 1.00017 (Simulation time: 0 hr 9 min 42 sec) 
Heartbeat CPU  0 instructions:  290000000 cycles:  240337699 heartbeat IPC: 1.09569 cumulative IPC: 1.00063 (Simulation time: 0 hr 9 min 44 sec) 
Heartbeat CPU  0 instructions:  291000002 cycles:  241259785 heartbeat IPC: 1.08450 cumulative IPC: 1.00104 (Simulation time: 0 hr 9 min 46 sec) 
Heartbeat CPU  0 instructions:  292000000 cycles:  242148243 heartbeat IPC: 1.12554 cumulative IPC: 1.00162 (Simulation time: 0 hr 9 min 48 sec) 
Heartbeat CPU  0 instructions:  293000001 cycles:  243077414 heartbeat IPC: 1.07623 cumulative IPC: 1.00198 (Simulation time: 0 hr 9 min 51 sec) 
Heartbeat CPU  0 instructions:  294000002 cycles:  243977369 heartbeat IPC: 1.11117 cumulative IPC: 1.00248 (Simulation time: 0 hr 9 min 53 sec) 
Heartbeat CPU  0 instructions:  295000003 cycles:  244878934 heartbeat IPC: 1.10918 cumulative IPC: 1.00298 (Simulation time: 0 hr 9 min 55 sec) 
Heartbeat CPU  0 instructions:  296000000 cycles:  245802547 heartbeat IPC: 1.08270 cumulative IPC: 1.00335 (Simulation time: 0 hr 9 min 57 sec) 
Heartbeat CPU  0 instructions:  297000003 cycles:  246694893 heartbeat IPC: 1.12064 cumulative IPC: 1.00389 (Simulation time: 0 hr 9 min 59 sec) 
Heartbeat CPU  0 instructions:  298000002 cycles:  247608146 heartbeat IPC: 1.09499 cumulative IPC: 1.00431 (Simulation time: 0 hr 10 min 1 sec) 
Heartbeat CPU  0 instructions:  299000003 cycles:  248512372 heartbeat IPC: 1.10592 cumulative IPC: 1.00477 (Simulation time: 0 hr 10 min 3 sec) 
Heartbeat CPU  0 instructions:  300000000 cycles:  249398464 heartbeat IPC: 1.12855 cumulative IPC: 1.00533 (Simulation time: 0 hr 10 min 5 sec) 
Heartbeat CPU  0 instructions:  301000000 cycles:  250318077 heartbeat IPC: 1.08741 cumulative IPC: 1.00570 (Simulation time: 0 hr 10 min 7 sec) 
Heartbeat CPU  0 instructions:  302000003 cycles:  251225329 heartbeat IPC: 1.10223 cumulative IPC: 1.00614 (Simulation time: 0 hr 10 min 9 sec) 
Heartbeat CPU  0 instructions:  303000002 cycles:  252122894 heartbeat IPC: 1.11412 cumulative IPC: 1.00662 (Simulation time: 0 hr 10 min 11 sec) 
Heartbeat CPU  0 instructions:  304000000 cycles:  253030654 heartbeat IPC: 1.10161 cumulative IPC: 1.00705 (Simulation time: 0 hr 10 min 13 sec) 
Heartbeat CPU  0 instructions:  305000001 cycles:  253919229 heartbeat IPC: 1.12540 cumulative IPC: 1.00756 (Simulation time: 0 hr 10 min 15 sec) 
Heartbeat CPU  0 instructions:  306000003 cycles:  254825929 heartbeat IPC: 1.10290 cumulative IPC: 1.00799 (Simulation time: 0 hr 10 min 18 sec) 
Heartbeat CPU  0 instructions:  307000000 cycles:  255731201 heartbeat IPC: 1.10464 cumulative IPC: 1.00841 (Simulation time: 0 hr 10 min 20 sec) 
Heartbeat CPU  0 instructions:  308000000 cycles:  256629224 heartbeat IPC: 1.11356 cumulative IPC: 1.00887 (Simulation time: 0 hr 10 min 22 sec) 
Heartbeat CPU  0 instructions:  309000000 cycles:  257540237 heartbeat IPC: 1.09768 cumulative IPC: 1.00926 (Simulation time: 0 hr 10 min 24 sec) 
Heartbeat CPU  0 instructions:  310000003 cycles:  258436473 heartbeat IPC: 1.11578 cumulative IPC: 1.00972 (Simulation time: 0 hr 10 min 26 sec) 
Heartbeat CPU  0 instructions:  311000001 cycles:  259326751 heartbeat IPC: 1.12324 cumulative IPC: 1.01020 (Simulation time: 0 hr 10 min 28 sec) 
Heartbeat CPU  0 instructions:  312000000 cycles:  260226312 heartbeat IPC: 1.11165 cumulative IPC: 1.01064 (Simulation time: 0 hr 10 min 30 sec) 
Heartbeat CPU  0 instructions:  313000001 cycles:  261125484 heartbeat IPC: 1.11214 cumulative IPC: 1.01107 (Simulation time: 0 hr 10 min 32 sec) 
Heartbeat CPU  0 instructions:  314000000 cycles:  262030290 heartbeat IPC: 1.10521 cumulative IPC: 1.01147 (Simulation time: 0 hr 10 min 34 sec) 
Heartbeat CPU  0 instructions:  315000000 cycles:  262937392 heartbeat IPC: 1.10241 cumulative IPC: 1.01186 (Simulation time: 0 hr 10 min 36 sec) 
Heartbeat CPU  0 instructions:  316000000 cycles:  263809972 heartbeat IPC: 1.14603 cumulative IPC: 1.01241 (Simulation time: 0 hr 10 min 38 sec) 
Heartbeat CPU  0 instructions:  317000000 cycles:  264717663 heartbeat IPC: 1.10170 cumulative IPC: 1.01279 (Simulation time: 0 hr 10 min 40 sec) 
Heartbeat CPU  0 instructions:  318000000 cycles:  265614313 heartbeat IPC: 1.11526 cumulative IPC: 1.01322 (Simulation time: 0 hr 10 min 42 sec) 
Heartbeat CPU  0 instructions:  319000001 cycles:  266516536 heartbeat IPC: 1.10837 cumulative IPC: 1.01361 (Simulation time: 0 hr 10 min 44 sec) 
Heartbeat CPU  0 instructions:  320000000 cycles:  267426984 heartbeat IPC: 1.09836 cumulative IPC: 1.01397 (Simulation time: 0 hr 10 min 47 sec) 
Heartbeat CPU  0 instructions:  321000003 cycles:  268294557 heartbeat IPC: 1.15264 cumulative IPC: 1.01452 (Simulation time: 0 hr 10 min 49 sec) 
Heartbeat CPU  0 instructions:  322000003 cycles:  269203362 heartbeat IPC: 1.10035 cumulative IPC: 1.01488 (Simulation time: 0 hr 10 min 51 sec) 
Heartbeat CPU  0 instructions:  323000003 cycles:  270103881 heartbeat IPC: 1.11047 cumulative IPC: 1.01527 (Simulation time: 0 hr 10 min 53 sec) 
Heartbeat CPU  0 instructions:  324000000 cycles:  271006134 heartbeat IPC: 1.10833 cumulative IPC: 1.01565 (Simulation time: 0 hr 10 min 55 sec) 
Heartbeat CPU  0 instructions:  325000000 cycles:  271910393 heartbeat IPC: 1.10588 cumulative IPC: 1.01602 (Simulation time: 0 hr 10 min 57 sec) 
Heartbeat CPU  0 instructions:  326000001 cycles:  272776329 heartbeat IPC: 1.15482 cumulative IPC: 1.01656 (Simulation time: 0 hr 10 min 59 sec) 
Heartbeat CPU  0 instructions:  327000001 cycles:  273679114 heartbeat IPC: 1.10768 cumulative IPC: 1.01693 (Simulation time: 0 hr 11 min 1 sec) 
Heartbeat CPU  0 instructions:  328000000 cycles:  274579776 heartbeat IPC: 1.11029 cumulative IPC: 1.01730 (Simulation time: 0 hr 11 min 3 sec) 
Heartbeat CPU  0 instructions:  329000000 cycles:  275480414 heartbeat IPC: 1.11032 cumulative IPC: 1.01768 (Simulation time: 0 hr 11 min 5 sec) 
Heartbeat CPU  0 instructions:  330000000 cycles:  276378987 heartbeat IPC: 1.11288 cumulative IPC: 1.01805 (Simulation time: 0 hr 11 min 7 sec) 
Heartbeat CPU  0 instructions:  331000003 cycles:  277269114 heartbeat IPC: 1.12344 cumulative IPC: 1.01847 (Simulation time: 0 hr 11 min 9 sec) 
Heartbeat CPU  0 instructions:  332000000 cycles:  278176717 heartbeat IPC: 1.10180 cumulative IPC: 1.01880 (Simulation time: 0 hr 11 min 11 sec) 
Heartbeat CPU  0 instructions:  333000002 cycles:  279085530 heartbeat IPC: 1.10034 cumulative IPC: 1.01912 (Simulation time: 0 hr 11 min 14 sec) 
Heartbeat CPU  0 instructions:  334000003 cycles:  279981082 heartbeat IPC: 1.11663 cumulative IPC: 1.01950 (Simulation time: 0 hr 11 min 16 sec) 
Heartbeat CPU  0 instructions:  335000000 cycles:  280889393 heartbeat IPC: 1.10094 cumulative IPC: 1.01983 (Simulation time: 0 hr 11 min 18 sec) 
Heartbeat CPU  0 instructions:  336000000 cycles:  281774771 heartbeat IPC: 1.12946 cumulative IPC: 1.02025 (Simulation time: 0 hr 11 min 20 sec) 
Heartbeat CPU  0 instructions:  337000001 cycles:  282675602 heartbeat IPC: 1.11009 cumulative IPC: 1.02059 (Simulation time: 0 hr 11 min 22 sec) 
Heartbeat CPU  0 instructions:  338000003 cycles:  283579756 heartbeat IPC: 1.10601 cumulative IPC: 1.02093 (Simulation time: 0 hr 11 min 24 sec) 
Heartbeat CPU  0 instructions:  339000000 cycles:  284458099 heartbeat IPC: 1.13850 cumulative IPC: 1.02137 (Simulation time: 0 hr 11 min 26 sec) 
Heartbeat CPU  0 instructions:  340000000 cycles:  285375373 heartbeat IPC: 1.09019 cumulative IPC: 1.02164 (Simulation time: 0 hr 11 min 28 sec) 
Heartbeat CPU  0 instructions:  341000002 cycles:  286267334 heartbeat IPC: 1.12113 cumulative IPC: 1.02201 (Simulation time: 0 hr 11 min 30 sec) 
Heartbeat CPU  0 instructions:  342000001 cycles:  287176617 heartbeat IPC: 1.09977 cumulative IPC: 1.02231 (Simulation time: 0 hr 11 min 32 sec) 
Heartbeat CPU  0 instructions:  343000001 cycles:  288088974 heartbeat IPC: 1.09606 cumulative IPC: 1.02259 (Simulation time: 0 hr 11 min 34 sec) 
Heartbeat CPU  0 instructions:  344000000 cycles:  288963202 heartbeat IPC: 1.14387 cumulative IPC: 1.02304 (Simulation time: 0 hr 11 min 36 sec) 
Heartbeat CPU  0 instructions:  345000001 cycles:  289893261 heartbeat IPC: 1.07520 cumulative IPC: 1.02324 (Simulation time: 0 hr 11 min 38 sec) 
Heartbeat CPU  0 instructions:  346000001 cycles:  290796954 heartbeat IPC: 1.10657 cumulative IPC: 1.02355 (Simulation time: 0 hr 11 min 40 sec) 
Heartbeat CPU  0 instructions:  347000003 cycles:  292292853 heartbeat IPC: 0.66850 cumulative IPC: 1.02136 (Simulation time: 0 hr 11 min 43 sec) 
Heartbeat CPU  0 instructions:  348000000 cycles:  293555191 heartbeat IPC: 0.79218 cumulative IPC: 1.02017 (Simulation time: 0 hr 11 min 45 sec) 
Heartbeat CPU  0 instructions:  349000002 cycles:  294706230 heartbeat IPC: 0.86878 cumulative IPC: 1.01945 (Simulation time: 0 hr 11 min 47 sec) 
Heartbeat CPU  0 instructions:  350000000 cycles:  295884742 heartbeat IPC: 0.84853 cumulative IPC: 1.01863 (Simulation time: 0 hr 11 min 49 sec) 
Heartbeat CPU  0 instructions:  351000002 cycles:  297034431 heartbeat IPC: 0.86980 cumulative IPC: 1.01794 (Simulation time: 0 hr 11 min 51 sec) 
Heartbeat CPU  0 instructions:  352000000 cycles:  298191846 heartbeat IPC: 0.86399 cumulative IPC: 1.01722 (Simulation time: 0 hr 11 min 53 sec) 
Heartbeat CPU  0 instructions:  353000000 cycles:  299349824 heartbeat IPC: 0.86357 cumulative IPC: 1.01651 (Simulation time: 0 hr 11 min 56 sec) 
Heartbeat CPU  0 instructions:  354000000 cycles:  300548361 heartbeat IPC: 0.83435 cumulative IPC: 1.01563 (Simulation time: 0 hr 11 min 58 sec) 
Heartbeat CPU  0 instructions:  355000003 cycles:  301702917 heartbeat IPC: 0.86614 cumulative IPC: 1.01495 (Simulation time: 0 hr 12 min 0 sec) 
Heartbeat CPU  0 instructions:  356000000 cycles:  302867851 heartbeat IPC: 0.85842 cumulative IPC: 1.01422 (Simulation time: 0 hr 12 min 2 sec) 
Heartbeat CPU  0 instructions:  357000000 cycles:  304036410 heartbeat IPC: 0.85575 cumulative IPC: 1.01349 (Simulation time: 0 hr 12 min 4 sec) 
Heartbeat CPU  0 instructions:  358000000 cycles:  305191777 heartbeat IPC: 0.86553 cumulative IPC: 1.01282 (Simulation time: 0 hr 12 min 6 sec) 
Heartbeat CPU  0 instructions:  359000000 cycles:  306349290 heartbeat IPC: 0.86392 cumulative IPC: 1.01215 (Simulation time: 0 hr 12 min 9 sec) 
Heartbeat CPU  0 instructions:  360000000 cycles:  307558866 heartbeat IPC: 0.82674 cumulative IPC: 1.01128 (Simulation time: 0 hr 12 min 11 sec) 
Heartbeat CPU  0 instructions:  361000000 cycles:  308717077 heartbeat IPC: 0.86340 cumulative IPC: 1.01061 (Simulation time: 0 hr 12 min 13 sec) 
Heartbeat CPU  0 instructions:  362000001 cycles:  309879949 heartbeat IPC: 0.85994 cumulative IPC: 1.00994 (Simulation time: 0 hr 12 min 15 sec) 
Heartbeat CPU  0 instructions:  363000003 cycles:  311071044 heartbeat IPC: 0.83957 cumulative IPC: 1.00916 (Simulation time: 0 hr 12 min 17 sec) 
Heartbeat CPU  0 instructions:  364000000 cycles:  312244670 heartbeat IPC: 0.85206 cumulative IPC: 1.00845 (Simulation time: 0 hr 12 min 19 sec) 
Heartbeat CPU  0 instructions:  365000000 cycles:  313414607 heartbeat IPC: 0.85475 cumulative IPC: 1.00777 (Simulation time: 0 hr 12 min 21 sec) 
Heartbeat CPU  0 instructions:  366000000 cycles:  314622529 heartbeat IPC: 0.82787 cumulative IPC: 1.00695 (Simulation time: 0 hr 12 min 24 sec) 
Heartbeat CPU  0 instructions:  367000001 cycles:  315796229 heartbeat IPC: 0.85201 cumulative IPC: 1.00626 (Simulation time: 0 hr 12 min 26 sec) 
Heartbeat CPU  0 instructions:  368000000 cycles:  316962017 heartbeat IPC: 0.85779 cumulative IPC: 1.00561 (Simulation time: 0 hr 12 min 28 sec) 
Heartbeat CPU  0 instructions:  369000000 cycles:  318150835 heartbeat IPC: 0.84117 cumulative IPC: 1.00488 (Simulation time: 0 hr 12 min 30 sec) 
Heartbeat CPU  0 instructions:  370000002 cycles:  319322194 heartbeat IPC: 0.85371 cumulative IPC: 1.00422 (Simulation time: 0 hr 12 min 32 sec) 
Heartbeat CPU  0 instructions:  371000002 cycles:  320492975 heartbeat IPC: 0.85413 cumulative IPC: 1.00357 (Simulation time: 0 hr 12 min 34 sec) 
Heartbeat CPU  0 instructions:  372000000 cycles:  321665769 heartbeat IPC: 0.85266 cumulative IPC: 1.00292 (Simulation time: 0 hr 12 min 37 sec) 
Heartbeat CPU  0 instructions:  373000002 cycles:  322874432 heartbeat IPC: 0.82736 cumulative IPC: 1.00214 (Simulation time: 0 hr 12 min 39 sec) 
Heartbeat CPU  0 instructions:  374000003 cycles:  324050671 heartbeat IPC: 0.85017 cumulative IPC: 1.00149 (Simulation time: 0 hr 12 min 41 sec) 
Heartbeat CPU  0 instructions:  375000003 cycles:  325233694 heartbeat IPC: 0.84529 cumulative IPC: 1.00082 (Simulation time: 0 hr 12 min 43 sec) 
Heartbeat CPU  0 instructions:  376000000 cycles:  326406315 heartbeat IPC: 0.85279 cumulative IPC: 1.00019 (Simulation time: 0 hr 12 min 45 sec) 
Heartbeat CPU  0 instructions:  377000003 cycles:  327591340 heartbeat IPC: 0.84387 cumulative IPC: 0.99952 (Simulation time: 0 hr 12 min 48 sec) 
Heartbeat CPU  0 instructions:  378000003 cycles:  328765866 heartbeat IPC: 0.85141 cumulative IPC: 0.99889 (Simulation time: 0 hr 12 min 50 sec) 
Heartbeat CPU  0 instructions:  379000003 cycles:  329969865 heartbeat IPC: 0.83057 cumulative IPC: 0.99817 (Simulation time: 0 hr 12 min 52 sec) 
Heartbeat CPU  0 instructions:  380000000 cycles:  331137442 heartbeat IPC: 0.85647 cumulative IPC: 0.99758 (Simulation time: 0 hr 12 min 54 sec) 
Heartbeat CPU  0 instructions:  381000002 cycles:  332313465 heartbeat IPC: 0.85033 cumulative IPC: 0.99696 (Simulation time: 0 hr 12 min 56 sec) 
Heartbeat CPU  0 instructions:  382000001 cycles:  333486294 heartbeat IPC: 0.85264 cumulative IPC: 0.99637 (Simulation time: 0 hr 12 min 58 sec) 
Heartbeat CPU  0 instructions:  383000000 cycles:  334668097 heartbeat IPC: 0.84616 cumulative IPC: 0.99574 (Simulation time: 0 hr 13 min 1 sec) 
Heartbeat CPU  0 instructions:  384000000 cycles:  335835134 heartbeat IPC: 0.85687 cumulative IPC: 0.99517 (Simulation time: 0 hr 13 min 3 sec) 
Heartbeat CPU  0 instructions:  385000000 cycles:  337013871 heartbeat IPC: 0.84837 cumulative IPC: 0.99457 (Simulation time: 0 hr 13 min 5 sec) 
Heartbeat CPU  0 instructions:  386000001 cycles:  338231104 heartbeat IPC: 0.82154 cumulative IPC: 0.99384 (Simulation time: 0 hr 13 min 7 sec) 
Heartbeat CPU  0 instructions:  387000003 cycles:  339408791 heartbeat IPC: 0.84912 cumulative IPC: 0.99325 (Simulation time: 0 hr 13 min 9 sec) 
Heartbeat CPU  0 instructions:  388000000 cycles:  340574011 heartbeat IPC: 0.85820 cumulative IPC: 0.99271 (Simulation time: 0 hr 13 min 11 sec) 
Heartbeat CPU  0 instructions:  389000001 cycles:  341757768 heartbeat IPC: 0.84477 cumulative IPC: 0.99210 (Simulation time: 0 hr 13 min 14 sec) 
Heartbeat CPU  0 instructions:  390000000 cycles:  342937641 heartbeat IPC: 0.84755 cumulative IPC: 0.99152 (Simulation time: 0 hr 13 min 16 sec) 
Heartbeat CPU  0 instructions:  391000000 cycles:  344105551 heartbeat IPC: 0.85623 cumulative IPC: 0.99098 (Simulation time: 0 hr 13 min 18 sec) 
Heartbeat CPU  0 instructions:  392000000 cycles:  345402502 heartbeat IPC: 0.77104 cumulative IPC: 0.99002 (Simulation time: 0 hr 13 min 20 sec) 
Heartbeat CPU  0 instructions:  393000002 cycles:  347533209 heartbeat IPC: 0.46933 cumulative IPC: 0.98628 (Simulation time: 0 hr 13 min 23 sec) 
Heartbeat CPU  0 instructions:  394000001 cycles:  351246208 heartbeat IPC: 0.26932 cumulative IPC: 0.97743 (Simulation time: 0 hr 13 min 27 sec) 
Heartbeat CPU  0 instructions:  395000000 cycles:  353492345 heartbeat IPC: 0.44521 cumulative IPC: 0.97349 (Simulation time: 0 hr 13 min 30 sec) 
Heartbeat CPU  0 instructions:  396000000 cycles:  354551290 heartbeat IPC: 0.94434 cumulative IPC: 0.97339 (Simulation time: 0 hr 13 min 32 sec) 
Heartbeat CPU  0 instructions:  397000000 cycles:  355364698 heartbeat IPC: 1.22940 cumulative IPC: 0.97407 (Simulation time: 0 hr 13 min 34 sec) 
Heartbeat CPU  0 instructions:  398000001 cycles:  356185246 heartbeat IPC: 1.21870 cumulative IPC: 0.97472 (Simulation time: 0 hr 13 min 36 sec) 
Heartbeat CPU  0 instructions:  399000002 cycles:  357016686 heartbeat IPC: 1.20273 cumulative IPC: 0.97534 (Simulation time: 0 hr 13 min 38 sec) 
Heartbeat CPU  0 instructions:  400000000 cycles:  357838289 heartbeat IPC: 1.21713 cumulative IPC: 0.97599 (Simulation time: 0 hr 13 min 41 sec) 
Heartbeat CPU  0 instructions:  401000003 cycles:  358670874 heartbeat IPC: 1.20108 cumulative IPC: 0.97660 (Simulation time: 0 hr 13 min 43 sec) 
Heartbeat CPU  0 instructions:  402000002 cycles:  359767880 heartbeat IPC: 0.91157 cumulative IPC: 0.97637 (Simulation time: 0 hr 13 min 45 sec) 
Heartbeat CPU  0 instructions:  403000002 cycles:  360751567 heartbeat IPC: 1.01658 cumulative IPC: 0.97649 (Simulation time: 0 hr 13 min 47 sec) 
Heartbeat CPU  0 instructions:  404000000 cycles:  361633178 heartbeat IPC: 1.13428 cumulative IPC: 0.97694 (Simulation time: 0 hr 13 min 49 sec) 
Heartbeat CPU  0 instructions:  405000000 cycles:  362496264 heartbeat IPC: 1.15863 cumulative IPC: 0.97744 (Simulation time: 0 hr 13 min 51 sec) 
Heartbeat CPU  0 instructions:  406000000 cycles:  363357370 heartbeat IPC: 1.16130 cumulative IPC: 0.97795 (Simulation time: 0 hr 13 min 54 sec) 
Heartbeat CPU  0 instructions:  407000000 cycles:  364222997 heartbeat IPC: 1.15523 cumulative IPC: 0.97844 (Simulation time: 0 hr 13 min 56 sec) 
Heartbeat CPU  0 instructions:  408000000 cycles:  365359064 heartbeat IPC: 0.88023 cumulative IPC: 0.97808 (Simulation time: 0 hr 13 min 58 sec) 
Heartbeat CPU  0 instructions:  409000001 cycles:  366647896 heartbeat IPC: 0.77590 cumulative IPC: 0.97726 (Simulation time: 0 hr 14 min 0 sec) 
Heartbeat CPU  0 instructions:  410000003 cycles:  367759614 heartbeat IPC: 0.89951 cumulative IPC: 0.97699 (Simulation time: 0 hr 14 min 2 sec) 
Heartbeat CPU  0 instructions:  411000002 cycles:  368970341 heartbeat IPC: 0.82595 cumulative IPC: 0.97641 (Simulation time: 0 hr 14 min 4 sec) 
Heartbeat CPU  0 instructions:  412000000 cycles:  370112218 heartbeat IPC: 0.87575 cumulative IPC: 0.97605 (Simulation time: 0 hr 14 min 6 sec) 
Heartbeat CPU  0 instructions:  413000003 cycles:  370974122 heartbeat IPC: 1.16023 cumulative IPC: 0.97655 (Simulation time: 0 hr 14 min 8 sec) 
Heartbeat CPU  0 instructions:  414000002 cycles:  371789117 heartbeat IPC: 1.22700 cumulative IPC: 0.97718 (Simulation time: 0 hr 14 min 10 sec) 
Heartbeat CPU  0 instructions:  415000002 cycles:  372608274 heartbeat IPC: 1.22077 cumulative IPC: 0.97780 (Simulation time: 0 hr 14 min 12 sec) 
Heartbeat CPU  0 instructions:  416000000 cycles:  373421327 heartbeat IPC: 1.22993 cumulative IPC: 0.97844 (Simulation time: 0 hr 14 min 14 sec) 
Heartbeat CPU  0 instructions:  417000000 cycles:  374247152 heartbeat IPC: 1.21091 cumulative IPC: 0.97903 (Simulation time: 0 hr 14 min 16 sec) 
Heartbeat CPU  0 instructions:  418000001 cycles:  375068035 heartbeat IPC: 1.21820 cumulative IPC: 0.97964 (Simulation time: 0 hr 14 min 18 sec) 
Heartbeat CPU  0 instructions:  419000003 cycles:  375887528 heartbeat IPC: 1.22027 cumulative IPC: 0.98024 (Simulation time: 0 hr 14 min 20 sec) 
Heartbeat CPU  0 instructions:  420000000 cycles:  376706536 heartbeat IPC: 1.22099 cumulative IPC: 0.98085 (Simulation time: 0 hr 14 min 22 sec) 
Heartbeat CPU  0 instructions:  421000001 cycles:  377526279 heartbeat IPC: 1.21990 cumulative IPC: 0.98145 (Simulation time: 0 hr 14 min 24 sec) 
Heartbeat CPU  0 instructions:  422000000 cycles:  378354173 heartbeat IPC: 1.20788 cumulative IPC: 0.98202 (Simulation time: 0 hr 14 min 26 sec) 
Heartbeat CPU  0 instructions:  423000002 cycles:  379172812 heartbeat IPC: 1.22154 cumulative IPC: 0.98261 (Simulation time: 0 hr 14 min 28 sec) 
Heartbeat CPU  0 instructions:  424000000 cycles:  379994632 heartbeat IPC: 1.21681 cumulative IPC: 0.98320 (Simulation time: 0 hr 14 min 30 sec) 
Heartbeat CPU  0 instructions:  425000000 cycles:  380831362 heartbeat IPC: 1.19513 cumulative IPC: 0.98374 (Simulation time: 0 hr 14 min 32 sec) 
Heartbeat CPU  0 instructions:  426000003 cycles:  381666926 heartbeat IPC: 1.19680 cumulative IPC: 0.98427 (Simulation time: 0 hr 14 min 34 sec) 
Heartbeat CPU  0 instructions:  427000003 cycles:  382489122 heartbeat IPC: 1.21625 cumulative IPC: 0.98485 (Simulation time: 0 hr 14 min 36 sec) 
Heartbeat CPU  0 instructions:  428000000 cycles:  383313196 heartbeat IPC: 1.21348 cumulative IPC: 0.98541 (Simulation time: 0 hr 14 min 38 sec) 
Heartbeat CPU  0 instructions:  429000002 cycles:  384138669 heartbeat IPC: 1.21143 cumulative IPC: 0.98597 (Simulation time: 0 hr 14 min 40 sec) 
Heartbeat CPU  0 instructions:  430000002 cycles:  384962245 heartbeat IPC: 1.21422 cumulative IPC: 0.98653 (Simulation time: 0 hr 14 min 42 sec) 
Heartbeat CPU  0 instructions:  431000003 cycles:  385785201 heartbeat IPC: 1.21513 cumulative IPC: 0.98710 (Simulation time: 0 hr 14 min 45 sec) 
Heartbeat CPU  0 instructions:  432000000 cycles:  386604427 heartbeat IPC: 1.22066 cumulative IPC: 0.98766 (Simulation time: 0 hr 14 min 47 sec) 
Heartbeat CPU  0 instructions:  433000001 cycles:  387431077 heartbeat IPC: 1.20970 cumulative IPC: 0.98821 (Simulation time: 0 hr 14 min 49 sec) 
Heartbeat CPU  0 instructions:  434000001 cycles:  388252861 heartbeat IPC: 1.21686 cumulative IPC: 0.98877 (Simulation time: 0 hr 14 min 51 sec) 
Heartbeat CPU  0 instructions:  435000003 cycles:  389075172 heartbeat IPC: 1.21609 cumulative IPC: 0.98932 (Simulation time: 0 hr 14 min 53 sec) 
Heartbeat CPU  0 instructions:  436000000 cycles:  389897052 heartbeat IPC: 1.21672 cumulative IPC: 0.98987 (Simulation time: 0 hr 14 min 55 sec) 
Heartbeat CPU  0 instructions:  437000002 cycles:  390721503 heartbeat IPC: 1.21293 cumulative IPC: 0.99041 (Simulation time: 0 hr 14 min 57 sec) 
Heartbeat CPU  0 instructions:  438000000 cycles:  391545182 heartbeat IPC: 1.21406 cumulative IPC: 0.99095 (Simulation time: 0 hr 14 min 59 sec) 
Heartbeat CPU  0 instructions:  439000003 cycles:  392365624 heartbeat IPC: 1.21886 cumulative IPC: 0.99150 (Simulation time: 0 hr 15 min 1 sec) 
Heartbeat CPU  0 instructions:  440000000 cycles:  393211425 heartbeat IPC: 1.18231 cumulative IPC: 0.99197 (Simulation time: 0 hr 15 min 3 sec) 
Heartbeat CPU  0 instructions:  441000000 cycles:  394034932 heartbeat IPC: 1.21432 cumulative IPC: 0.99250 (Simulation time: 0 hr 15 min 5 sec) 
Heartbeat CPU  0 instructions:  442000003 cycles:  394855460 heartbeat IPC: 1.21873 cumulative IPC: 0.99304 (Simulation time: 0 hr 15 min 7 sec) 
Heartbeat CPU  0 instructions:  443000002 cycles:  395676595 heartbeat IPC: 1.21783 cumulative IPC: 0.99357 (Simulation time: 0 hr 15 min 9 sec) 
Heartbeat CPU  0 instructions:  444000000 cycles:  396500096 heartbeat IPC: 1.21433 cumulative IPC: 0.99410 (Simulation time: 0 hr 15 min 11 sec) 
Heartbeat CPU  0 instructions:  445000003 cycles:  397319369 heartbeat IPC: 1.22060 cumulative IPC: 0.99463 (Simulation time: 0 hr 15 min 13 sec) 
Heartbeat CPU  0 instructions:  446000002 cycles:  398140285 heartbeat IPC: 1.21815 cumulative IPC: 0.99516 (Simulation time: 0 hr 15 min 15 sec) 
Heartbeat CPU  0 instructions:  447000000 cycles:  398961898 heartbeat IPC: 1.21712 cumulative IPC: 0.99568 (Simulation time: 0 hr 15 min 17 sec) 
Heartbeat CPU  0 instructions:  448000000 cycles:  399782699 heartbeat IPC: 1.21832 cumulative IPC: 0.99621 (Simulation time: 0 hr 15 min 19 sec) 
Heartbeat CPU  0 instructions:  449000003 cycles:  400603392 heartbeat IPC: 1.21849 cumulative IPC: 0.99673 (Simulation time: 0 hr 15 min 21 sec) 
Heartbeat CPU  0 instructions:  450000001 cycles:  401423654 heartbeat IPC: 1.21912 cumulative IPC: 0.99725 (Simulation time: 0 hr 15 min 23 sec) 
Heartbeat CPU  0 instructions:  451000003 cycles:  402245022 heartbeat IPC: 1.21748 cumulative IPC: 0.99776 (Simulation time: 0 hr 15 min 25 sec) 
Heartbeat CPU  0 instructions:  452000000 cycles:  403063909 heartbeat IPC: 1.22117 cumulative IPC: 0.99828 (Simulation time: 0 hr 15 min 27 sec) 
Heartbeat CPU  0 instructions:  453000000 cycles:  403883465 heartbeat IPC: 1.22017 cumulative IPC: 0.99880 (Simulation time: 0 hr 15 min 29 sec) 
Heartbeat CPU  0 instructions:  454000000 cycles:  404715786 heartbeat IPC: 1.20146 cumulative IPC: 0.99927 (Simulation time: 0 hr 15 min 31 sec) 
Heartbeat CPU  0 instructions:  455000002 cycles:  405535037 heartbeat IPC: 1.22063 cumulative IPC: 0.99978 (Simulation time: 0 hr 15 min 33 sec) 
Heartbeat CPU  0 instructions:  456000000 cycles:  406354455 heartbeat IPC: 1.22038 cumulative IPC: 1.00029 (Simulation time: 0 hr 15 min 35 sec) 
Heartbeat CPU  0 instructions:  457000000 cycles:  407176278 heartbeat IPC: 1.21681 cumulative IPC: 1.00079 (Simulation time: 0 hr 15 min 37 sec) 
Heartbeat CPU  0 instructions:  458000002 cycles:  407994566 heartbeat IPC: 1.22207 cumulative IPC: 1.00130 (Simulation time: 0 hr 15 min 39 sec) 
Heartbeat CPU  0 instructions:  459000001 cycles:  408815059 heartbeat IPC: 1.21878 cumulative IPC: 1.00179 (Simulation time: 0 hr 15 min 41 sec) 
Heartbeat CPU  0 instructions:  460000000 cycles:  409632957 heartbeat IPC: 1.22265 cumulative IPC: 1.00230 (Simulation time: 0 hr 15 min 43 sec) 
Heartbeat CPU  0 instructions:  461000003 cycles:  410451452 heartbeat IPC: 1.22176 cumulative IPC: 1.00280 (Simulation time: 0 hr 15 min 45 sec) 
Heartbeat CPU  0 instructions:  462000002 cycles:  411271518 heartbeat IPC: 1.21941 cumulative IPC: 1.00329 (Simulation time: 0 hr 15 min 47 sec) 
Heartbeat CPU  0 instructions:  463000002 cycles:  412091222 heartbeat IPC: 1.21995 cumulative IPC: 1.00378 (Simulation time: 0 hr 15 min 49 sec) 
Heartbeat CPU  0 instructions:  464000000 cycles:  412910330 heartbeat IPC: 1.22084 cumulative IPC: 1.00427 (Simulation time: 0 hr 15 min 51 sec) 
Heartbeat CPU  0 instructions:  465000001 cycles:  413730328 heartbeat IPC: 1.21952 cumulative IPC: 1.00476 (Simulation time: 0 hr 15 min 53 sec) 
Heartbeat CPU  0 instructions:  466000001 cycles:  414553484 heartbeat IPC: 1.21484 cumulative IPC: 1.00523 (Simulation time: 0 hr 15 min 55 sec) 
Heartbeat CPU  0 instructions:  467000001 cycles:  415372260 heartbeat IPC: 1.22134 cumulative IPC: 1.00572 (Simulation time: 0 hr 15 min 57 sec) 
Heartbeat CPU  0 instructions:  468000000 cycles:  416211078 heartbeat IPC: 1.19215 cumulative IPC: 1.00614 (Simulation time: 0 hr 15 min 59 sec) 
Heartbeat CPU  0 instructions:  469000000 cycles:  417029806 heartbeat IPC: 1.22141 cumulative IPC: 1.00662 (Simulation time: 0 hr 16 min 1 sec) 
Heartbeat CPU  0 instructions:  470000003 cycles:  417849092 heartbeat IPC: 1.22058 cumulative IPC: 1.00710 (Simulation time: 0 hr 16 min 3 sec) 
Heartbeat CPU  0 instructions:  471000002 cycles:  418667388 heartbeat IPC: 1.22205 cumulative IPC: 1.00758 (Simulation time: 0 hr 16 min 5 sec) 
Heartbeat CPU  0 instructions:  472000000 cycles:  419487433 heartbeat IPC: 1.21944 cumulative IPC: 1.00805 (Simulation time: 0 hr 16 min 7 sec) 
Heartbeat CPU  0 instructions:  473000001 cycles:  420307560 heartbeat IPC: 1.21932 cumulative IPC: 1.00852 (Simulation time: 0 hr 16 min 9 sec) 
Heartbeat CPU  0 instructions:  474000002 cycles:  421125437 heartbeat IPC: 1.22268 cumulative IPC: 1.00899 (Simulation time: 0 hr 16 min 11 sec) 
Heartbeat CPU  0 instructions:  475000003 cycles:  421945220 heartbeat IPC: 1.21984 cumulative IPC: 1.00946 (Simulation time: 0 hr 16 min 13 sec) 
Heartbeat CPU  0 instructions:  476000000 cycles:  422763426 heartbeat IPC: 1.22218 cumulative IPC: 1.00992 (Simulation time: 0 hr 16 min 15 sec) 
Heartbeat CPU  0 instructions:  477000002 cycles:  423582684 heartbeat IPC: 1.22062 cumulative IPC: 1.01039 (Simulation time: 0 hr 16 min 17 sec) 
Heartbeat CPU  0 instructions:  478000002 cycles:  424402872 heartbeat IPC: 1.21923 cumulative IPC: 1.01084 (Simulation time: 0 hr 16 min 19 sec) 
Heartbeat CPU  0 instructions:  479000002 cycles:  425222661 heartbeat IPC: 1.21983 cumulative IPC: 1.01130 (Simulation time: 0 hr 16 min 21 sec) 
Heartbeat CPU  0 instructions:  480000000 cycles:  426041832 heartbeat IPC: 1.22074 cumulative IPC: 1.01176 (Simulation time: 0 hr 16 min 23 sec) 
Heartbeat CPU  0 instructions:  481000001 cycles:  426860959 heartbeat IPC: 1.22081 cumulative IPC: 1.01221 (Simulation time: 0 hr 16 min 25 sec) 
Heartbeat CPU  0 instructions:  482000000 cycles:  428618072 heartbeat IPC: 0.56911 cumulative IPC: 1.01015 (Simulation time: 0 hr 16 min 27 sec) 
Heartbeat CPU  0 instructions:  483000003 cycles:  429616442 heartbeat IPC: 1.00164 cumulative IPC: 1.01013 (Simulation time: 0 hr 16 min 29 sec) 
Heartbeat CPU  0 instructions:  484000000 cycles:  430569894 heartbeat IPC: 1.04882 cumulative IPC: 1.01023 (Simulation time: 0 hr 16 min 31 sec) 
Heartbeat CPU  0 instructions:  485000003 cycles:  431543825 heartbeat IPC: 1.02677 cumulative IPC: 1.01027 (Simulation time: 0 hr 16 min 33 sec) 
Heartbeat CPU  0 instructions:  486000002 cycles:  432500506 heartbeat IPC: 1.04528 cumulative IPC: 1.01036 (Simulation time: 0 hr 16 min 35 sec) 
Heartbeat CPU  0 instructions:  487000001 cycles:  433439458 heartbeat IPC: 1.06502 cumulative IPC: 1.01049 (Simulation time: 0 hr 16 min 37 sec) 
Heartbeat CPU  0 instructions:  488000000 cycles:  434379007 heartbeat IPC: 1.06434 cumulative IPC: 1.01062 (Simulation time: 0 hr 16 min 39 sec) 
Heartbeat CPU  0 instructions:  489000001 cycles:  435295770 heartbeat IPC: 1.09080 cumulative IPC: 1.01082 (Simulation time: 0 hr 16 min 41 sec) 
Heartbeat CPU  0 instructions:  490000001 cycles:  436258017 heartbeat IPC: 1.03923 cumulative IPC: 1.01089 (Simulation time: 0 hr 16 min 43 sec) 
Heartbeat CPU  0 instructions:  491000000 cycles:  437876138 heartbeat IPC: 0.61800 cumulative IPC: 1.00925 (Simulation time: 0 hr 16 min 46 sec) 
Heartbeat CPU  0 instructions:  492000000 cycles:  438808404 heartbeat IPC: 1.07266 cumulative IPC: 1.00940 (Simulation time: 0 hr 16 min 48 sec) 
Heartbeat CPU  0 instructions:  493000002 cycles:  439697896 heartbeat IPC: 1.12424 cumulative IPC: 1.00966 (Simulation time: 0 hr 16 min 50 sec) 
Heartbeat CPU  0 instructions:  494000001 cycles:  440627923 heartbeat IPC: 1.07524 cumulative IPC: 1.00982 (Simulation time: 0 hr 16 min 52 sec) 
Heartbeat CPU  0 instructions:  495000001 cycles:  441567554 heartbeat IPC: 1.06425 cumulative IPC: 1.00995 (Simulation time: 0 hr 16 min 54 sec) 
Heartbeat CPU  0 instructions:  496000000 cycles:  442485946 heartbeat IPC: 1.08886 cumulative IPC: 1.01013 (Simulation time: 0 hr 16 min 56 sec) 
Heartbeat CPU  0 instructions:  497000000 cycles:  443375672 heartbeat IPC: 1.12394 cumulative IPC: 1.01039 (Simulation time: 0 hr 16 min 58 sec) 
Heartbeat CPU  0 instructions:  498000001 cycles:  444275943 heartbeat IPC: 1.11078 cumulative IPC: 1.01062 (Simulation time: 0 hr 17 min 0 sec) 
Heartbeat CPU  0 instructions:  499000000 cycles:  445490028 heartbeat IPC: 0.82366 cumulative IPC: 1.01004 (Simulation time: 0 hr 17 min 2 sec) 
Heartbeat CPU  0 instructions:  500000000 cycles:  446844875 heartbeat IPC: 0.73809 cumulative IPC: 1.00911 (Simulation time: 0 hr 17 min 4 sec) 
Heartbeat CPU  0 instructions:  501000002 cycles:  447859275 heartbeat IPC: 0.98581 cumulative IPC: 1.00906 (Simulation time: 0 hr 17 min 6 sec) 
Heartbeat CPU  0 instructions:  502000003 cycles:  448815587 heartbeat IPC: 1.04568 cumulative IPC: 1.00914 (Simulation time: 0 hr 17 min 8 sec) 
Heartbeat CPU  0 instructions:  503000003 cycles:  449815113 heartbeat IPC: 1.00047 cumulative IPC: 1.00912 (Simulation time: 0 hr 17 min 10 sec) 
Heartbeat CPU  0 instructions:  504000000 cycles:  450805595 heartbeat IPC: 1.00961 cumulative IPC: 1.00912 (Simulation time: 0 hr 17 min 12 sec) 
Heartbeat CPU  0 instructions:  505000003 cycles:  451776417 heartbeat IPC: 1.03006 cumulative IPC: 1.00917 (Simulation time: 0 hr 17 min 14 sec) 
Heartbeat CPU  0 instructions:  506000002 cycles:  452729801 heartbeat IPC: 1.04889 cumulative IPC: 1.00927 (Simulation time: 0 hr 17 min 16 sec) 
Heartbeat CPU  0 instructions:  507000000 cycles:  453693052 heartbeat IPC: 1.03815 cumulative IPC: 1.00934 (Simulation time: 0 hr 17 min 18 sec) 
Heartbeat CPU  0 instructions:  508000000 cycles:  455200614 heartbeat IPC: 0.66332 cumulative IPC: 1.00805 (Simulation time: 0 hr 17 min 21 sec) 
Heartbeat CPU  0 instructions:  509000002 cycles:  456501515 heartbeat IPC: 0.76870 cumulative IPC: 1.00728 (Simulation time: 0 hr 17 min 23 sec) 
Heartbeat CPU  0 instructions:  510000002 cycles:  457735393 heartbeat IPC: 0.81045 cumulative IPC: 1.00668 (Simulation time: 0 hr 17 min 26 sec) 
Heartbeat CPU  0 instructions:  511000003 cycles:  458936255 heartbeat IPC: 0.83274 cumulative IPC: 1.00617 (Simulation time: 0 hr 17 min 28 sec) 
Heartbeat CPU  0 instructions:  512000000 cycles:  460149001 heartbeat IPC: 0.82457 cumulative IPC: 1.00564 (Simulation time: 0 hr 17 min 31 sec) 
Heartbeat CPU  0 instructions:  513000003 cycles:  461361712 heartbeat IPC: 0.82460 cumulative IPC: 1.00510 (Simulation time: 0 hr 17 min 33 sec) 
Heartbeat CPU  0 instructions:  514000003 cycles:  462609054 heartbeat IPC: 0.80170 cumulative IPC: 1.00449 (Simulation time: 0 hr 17 min 35 sec) 
Heartbeat CPU  0 instructions:  515000000 cycles:  463812071 heartbeat IPC: 0.83124 cumulative IPC: 1.00398 (Simulation time: 0 hr 17 min 38 sec) 
Heartbeat CPU  0 instructions:  516000000 cycles:  465029082 heartbeat IPC: 0.82169 cumulative IPC: 1.00345 (Simulation time: 0 hr 17 min 40 sec) 
Heartbeat CPU  0 instructions:  517000001 cycles:  466226813 heartbeat IPC: 0.83491 cumulative IPC: 1.00296 (Simulation time: 0 hr 17 min 43 sec) 
Heartbeat CPU  0 instructions:  518000001 cycles:  467445517 heartbeat IPC: 0.82054 cumulative IPC: 1.00243 (Simulation time: 0 hr 17 min 45 sec) 
Heartbeat CPU  0 instructions:  519000000 cycles:  468679061 heartbeat IPC: 0.81067 cumulative IPC: 1.00186 (Simulation time: 0 hr 17 min 48 sec) 
Heartbeat CPU  0 instructions:  520000000 cycles:  469878319 heartbeat IPC: 0.83385 cumulative IPC: 1.00138 (Simulation time: 0 hr 17 min 50 sec) 
Heartbeat CPU  0 instructions:  521000003 cycles:  471093009 heartbeat IPC: 0.82326 cumulative IPC: 1.00087 (Simulation time: 0 hr 17 min 53 sec) 
Heartbeat CPU  0 instructions:  522000002 cycles:  472277329 heartbeat IPC: 0.84437 cumulative IPC: 1.00043 (Simulation time: 0 hr 17 min 55 sec) 
Heartbeat CPU  0 instructions:  523000001 cycles:  473515167 heartbeat IPC: 0.80786 cumulative IPC: 0.99986 (Simulation time: 0 hr 17 min 57 sec) 
Heartbeat CPU  0 instructions:  524000000 cycles:  474696086 heartbeat IPC: 0.84680 cumulative IPC: 0.99944 (Simulation time: 0 hr 18 min 0 sec) 
Heartbeat CPU  0 instructions:  525000000 cycles:  475898320 heartbeat IPC: 0.83178 cumulative IPC: 0.99896 (Simulation time: 0 hr 18 min 2 sec) 
Heartbeat CPU  0 instructions:  526000001 cycles:  477090656 heartbeat IPC: 0.83869 cumulative IPC: 0.99852 (Simulation time: 0 hr 18 min 5 sec) 
Heartbeat CPU  0 instructions:  527000001 cycles:  478322391 heartbeat IPC: 0.81186 cumulative IPC: 0.99798 (Simulation time: 0 hr 18 min 7 sec) 
Heartbeat CPU  0 instructions:  528000000 cycles:  479535343 heartbeat IPC: 0.82443 cumulative IPC: 0.99749 (Simulation time: 0 hr 18 min 10 sec) 
Heartbeat CPU  0 instructions:  529000002 cycles:  480744750 heartbeat IPC: 0.82685 cumulative IPC: 0.99701 (Simulation time: 0 hr 18 min 12 sec) 
Heartbeat CPU  0 instructions:  530000003 cycles:  481965688 heartbeat IPC: 0.81904 cumulative IPC: 0.99651 (Simulation time: 0 hr 18 min 14 sec) 
Heartbeat CPU  0 instructions:  531000002 cycles:  483188565 heartbeat IPC: 0.81774 cumulative IPC: 0.99600 (Simulation time: 0 hr 18 min 17 sec) 
Heartbeat CPU  0 instructions:  532000000 cycles:  484400565 heartbeat IPC: 0.82508 cumulative IPC: 0.99552 (Simulation time: 0 hr 18 min 19 sec) 
Heartbeat CPU  0 instructions:  533000000 cycles:  485612618 heartbeat IPC: 0.82505 cumulative IPC: 0.99505 (Simulation time: 0 hr 18 min 22 sec) 
Heartbeat CPU  0 instructions:  534000000 cycles:  486818179 heartbeat IPC: 0.82949 cumulative IPC: 0.99459 (Simulation time: 0 hr 18 min 24 sec) 
Heartbeat CPU  0 instructions:  535000000 cycles:  488027935 heartbeat IPC: 0.82661 cumulative IPC: 0.99413 (Simulation time: 0 hr 18 min 27 sec) 
Heartbeat CPU  0 instructions:  536000000 cycles:  489251025 heartbeat IPC: 0.81760 cumulative IPC: 0.99363 (Simulation time: 0 hr 18 min 29 sec) 
Heartbeat CPU  0 instructions:  537000001 cycles:  490467607 heartbeat IPC: 0.82198 cumulative IPC: 0.99316 (Simulation time: 0 hr 18 min 32 sec) 
Heartbeat CPU  0 instructions:  538000002 cycles:  491690364 heartbeat IPC: 0.81782 cumulative IPC: 0.99267 (Simulation time: 0 hr 18 min 34 sec) 
Heartbeat CPU  0 instructions:  539000000 cycles:  492907485 heartbeat IPC: 0.82161 cumulative IPC: 0.99220 (Simulation time: 0 hr 18 min 37 sec) 
Heartbeat CPU  0 instructions:  540000000 cycles:  494144334 heartbeat IPC: 0.80851 cumulative IPC: 0.99169 (Simulation time: 0 hr 18 min 39 sec) 
Heartbeat CPU  0 instructions:  541000003 cycles:  495355856 heartbeat IPC: 0.82541 cumulative IPC: 0.99124 (Simulation time: 0 hr 18 min 42 sec) 
Heartbeat CPU  0 instructions:  542000000 cycles:  496575232 heartbeat IPC: 0.82009 cumulative IPC: 0.99077 (Simulation time: 0 hr 18 min 44 sec) 
Heartbeat CPU  0 instructions:  543000001 cycles:  497779712 heartbeat IPC: 0.83023 cumulative IPC: 0.99034 (Simulation time: 0 hr 18 min 46 sec) 
Heartbeat CPU  0 instructions:  544000000 cycles:  499005885 heartbeat IPC: 0.81554 cumulative IPC: 0.98986 (Simulation time: 0 hr 18 min 49 sec) 
Heartbeat CPU  0 instructions:  545000000 cycles:  500206477 heartbeat IPC: 0.83292 cumulative IPC: 0.98944 (Simulation time: 0 hr 18 min 51 sec) 
Heartbeat CPU  0 instructions:  546000001 cycles:  501587338 heartbeat IPC: 0.72419 cumulative IPC: 0.98863 (Simulation time: 0 hr 18 min 54 sec) 
Heartbeat CPU  0 instructions:  547000001 cycles:  502745489 heartbeat IPC: 0.86345 cumulative IPC: 0.98831 (Simulation time: 0 hr 18 min 56 sec) 
Heartbeat CPU  0 instructions:  548000000 cycles:  503647364 heartbeat IPC: 1.10880 cumulative IPC: 0.98855 (Simulation time: 0 hr 18 min 58 sec) 
Heartbeat CPU  0 instructions:  549000000 cycles:  504536285 heartbeat IPC: 1.12496 cumulative IPC: 0.98882 (Simulation time: 0 hr 19 min 0 sec) 
Heartbeat CPU  0 instructions:  550000002 cycles:  505446693 heartbeat IPC: 1.09841 cumulative IPC: 0.98904 (Simulation time: 0 hr 19 min 2 sec) 
Heartbeat CPU  0 instructions:  551000001 cycles:  506345537 heartbeat IPC: 1.11254 cumulative IPC: 0.98928 (Simulation time: 0 hr 19 min 4 sec) 
Heartbeat CPU  0 instructions:  552000000 cycles:  507230666 heartbeat IPC: 1.12978 cumulative IPC: 0.98955 (Simulation time: 0 hr 19 min 6 sec) 
Heartbeat CPU  0 instructions:  553000003 cycles:  508131521 heartbeat IPC: 1.11006 cumulative IPC: 0.98979 (Simulation time: 0 hr 19 min 9 sec) 
Heartbeat CPU  0 instructions:  554000001 cycles:  509034907 heartbeat IPC: 1.10694 cumulative IPC: 0.99002 (Simulation time: 0 hr 19 min 11 sec) 
Heartbeat CPU  0 instructions:  555000001 cycles:  509930787 heartbeat IPC: 1.11622 cumulative IPC: 0.99027 (Simulation time: 0 hr 19 min 13 sec) 
Heartbeat CPU  0 instructions:  556000000 cycles:  510829849 heartbeat IPC: 1.11227 cumulative IPC: 0.99050 (Simulation time: 0 hr 19 min 15 sec) 
Heartbeat CPU  0 instructions:  557000002 cycles:  511713374 heartbeat IPC: 1.13183 cumulative IPC: 0.99077 (Simulation time: 0 hr 19 min 17 sec) 
Heartbeat CPU  0 instructions:  558000003 cycles:  512599107 heartbeat IPC: 1.12901 cumulative IPC: 0.99104 (Simulation time: 0 hr 19 min 19 sec) 
Heartbeat CPU  0 instructions:  559000002 cycles:  513486509 heartbeat IPC: 1.12688 cumulative IPC: 0.99130 (Simulation time: 0 hr 19 min 21 sec) 
Heartbeat CPU  0 instructions:  560000000 cycles:  514357900 heartbeat IPC: 1.14759 cumulative IPC: 0.99159 (Simulation time: 0 hr 19 min 23 sec) 
Heartbeat CPU  0 instructions:  561000002 cycles:  515232672 heartbeat IPC: 1.14316 cumulative IPC: 0.99188 (Simulation time: 0 hr 19 min 25 sec) 
Heartbeat CPU  0 instructions:  562000002 cycles:  516111243 heartbeat IPC: 1.13821 cumulative IPC: 0.99215 (Simulation time: 0 hr 19 min 27 sec) 
Heartbeat CPU  0 instructions:  563000001 cycles:  516995099 heartbeat IPC: 1.13140 cumulative IPC: 0.99242 (Simulation time: 0 hr 19 min 29 sec) 
Heartbeat CPU  0 instructions:  564000000 cycles:  517893421 heartbeat IPC: 1.11319 cumulative IPC: 0.99265 (Simulation time: 0 hr 19 min 32 sec) 
Heartbeat CPU  0 instructions:  565000003 cycles:  518795887 heartbeat IPC: 1.10808 cumulative IPC: 0.99287 (Simulation time: 0 hr 19 min 34 sec) 
Heartbeat CPU  0 instructions:  566000002 cycles:  519677915 heartbeat IPC: 1.13375 cumulative IPC: 0.99314 (Simulation time: 0 hr 19 min 36 sec) 
Heartbeat CPU  0 instructions:  567000001 cycles:  520608844 heartbeat IPC: 1.07419 cumulative IPC: 0.99330 (Simulation time: 0 hr 19 min 38 sec) 
Heartbeat CPU  0 instructions:  568000000 cycles:  521474152 heartbeat IPC: 1.15566 cumulative IPC: 0.99360 (Simulation time: 0 hr 19 min 40 sec) 
Heartbeat CPU  0 instructions:  569000001 cycles:  522354452 heartbeat IPC: 1.13598 cumulative IPC: 0.99386 (Simulation time: 0 hr 19 min 42 sec) 
Heartbeat CPU  0 instructions:  570000001 cycles:  523244412 heartbeat IPC: 1.12365 cumulative IPC: 0.99411 (Simulation time: 0 hr 19 min 44 sec) 
Heartbeat CPU  0 instructions:  571000003 cycles:  524135427 heartbeat IPC: 1.12232 cumulative IPC: 0.99435 (Simulation time: 0 hr 19 min 46 sec) 
Heartbeat CPU  0 instructions:  572000000 cycles:  524999281 heartbeat IPC: 1.15760 cumulative IPC: 0.99464 (Simulation time: 0 hr 19 min 48 sec) 
Heartbeat CPU  0 instructions:  573000001 cycles:  525885299 heartbeat IPC: 1.12865 cumulative IPC: 0.99489 (Simulation time: 0 hr 19 min 50 sec) 
Heartbeat CPU  0 instructions:  574000003 cycles:  526768922 heartbeat IPC: 1.13171 cumulative IPC: 0.99515 (Simulation time: 0 hr 19 min 52 sec) 
Heartbeat CPU  0 instructions:  575000000 cycles:  527663687 heartbeat IPC: 1.11761 cumulative IPC: 0.99538 (Simulation time: 0 hr 19 min 55 sec) 
Heartbeat CPU  0 instructions:  576000000 cycles:  528559326 heartbeat IPC: 1.11652 cumulative IPC: 0.99560 (Simulation time: 0 hr 19 min 57 sec) 
Heartbeat CPU  0 instructions:  577000002 cycles:  529452493 heartbeat IPC: 1.11961 cumulative IPC: 0.99584 (Simulation time: 0 hr 19 min 59 sec) 
Heartbeat CPU  0 instructions:  578000003 cycles:  530339310 heartbeat IPC: 1.12763 cumulative IPC: 0.99608 (Simulation time: 0 hr 20 min 1 sec) 
Heartbeat CPU  0 instructions:  579000000 cycles:  531220703 heartbeat IPC: 1.13456 cumulative IPC: 0.99633 (Simulation time: 0 hr 20 min 3 sec) 
Heartbeat CPU  0 instructions:  580000000 cycles:  532100080 heartbeat IPC: 1.13717 cumulative IPC: 0.99659 (Simulation time: 0 hr 20 min 5 sec) 
Heartbeat CPU  0 instructions:  581000002 cycles:  532979200 heartbeat IPC: 1.13750 cumulative IPC: 0.99685 (Simulation time: 0 hr 20 min 7 sec) 
Heartbeat CPU  0 instructions:  582000000 cycles:  533864885 heartbeat IPC: 1.12907 cumulative IPC: 0.99709 (Simulation time: 0 hr 20 min 9 sec) 
Heartbeat CPU  0 instructions:  583000000 cycles:  534738020 heartbeat IPC: 1.14530 cumulative IPC: 0.99736 (Simulation time: 0 hr 20 min 11 sec) 
Heartbeat CPU  0 instructions:  584000000 cycles:  535630918 heartbeat IPC: 1.11995 cumulative IPC: 0.99758 (Simulation time: 0 hr 20 min 14 sec) 
Heartbeat CPU  0 instructions:  585000001 cycles:  536513582 heartbeat IPC: 1.13294 cumulative IPC: 0.99783 (Simulation time: 0 hr 20 min 16 sec) 
Heartbeat CPU  0 instructions:  586000000 cycles:  537406411 heartbeat IPC: 1.12003 cumulative IPC: 0.99805 (Simulation time: 0 hr 20 min 18 sec) 
Heartbeat CPU  0 instructions:  587000000 cycles:  538301818 heartbeat IPC: 1.11681 cumulative IPC: 0.99827 (Simulation time: 0 hr 20 min 20 sec) 
Heartbeat CPU  0 instructions:  588000000 cycles:  539219397 heartbeat IPC: 1.08982 cumulative IPC: 0.99844 (Simulation time: 0 hr 20 min 23 sec) 
Heartbeat CPU  0 instructions:  589000001 cycles:  540097801 heartbeat IPC: 1.13843 cumulative IPC: 0.99869 (Simulation time: 0 hr 20 min 25 sec) 
Heartbeat CPU  0 instructions:  590000003 cycles:  540977502 heartbeat IPC: 1.13675 cumulative IPC: 0.99894 (Simulation time: 0 hr 20 min 27 sec) 
Heartbeat CPU  0 instructions:  591000002 cycles:  541854340 heartbeat IPC: 1.14046 cumulative IPC: 0.99919 (Simulation time: 0 hr 20 min 29 sec) 
Heartbeat CPU  0 instructions:  592000000 cycles:  542732394 heartbeat IPC: 1.13888 cumulative IPC: 0.99944 (Simulation time: 0 hr 20 min 31 sec) 
Heartbeat CPU  0 instructions:  593000000 cycles:  543623809 heartbeat IPC: 1.12181 cumulative IPC: 0.99966 (Simulation time: 0 hr 20 min 33 sec) 
Heartbeat CPU  0 instructions:  594000003 cycles:  544495918 heartbeat IPC: 1.14665 cumulative IPC: 0.99992 (Simulation time: 0 hr 20 min 35 sec) 
Heartbeat CPU  0 instructions:  595000000 cycles:  545387761 heartbeat IPC: 1.12127 cumulative IPC: 1.00014 (Simulation time: 0 hr 20 min 37 sec) 
Heartbeat CPU  0 instructions:  596000000 cycles:  546265385 heartbeat IPC: 1.13944 cumulative IPC: 1.00039 (Simulation time: 0 hr 20 min 39 sec) 
Heartbeat CPU  0 instructions:  597000001 cycles:  547146357 heartbeat IPC: 1.13511 cumulative IPC: 1.00063 (Simulation time: 0 hr 20 min 41 sec) 
Heartbeat CPU  0 instructions:  598000002 cycles:  548066104 heartbeat IPC: 1.08726 cumulative IPC: 1.00079 (Simulation time: 0 hr 20 min 43 sec) 
Heartbeat CPU  0 instructions:  599000000 cycles:  548948454 heartbeat IPC: 1.13333 cumulative IPC: 1.00102 (Simulation time: 0 hr 20 min 46 sec) 
Heartbeat CPU  0 instructions:  600000000 cycles:  549833110 heartbeat IPC: 1.13038 cumulative IPC: 1.00125 (Simulation time: 0 hr 20 min 48 sec) 
Finished CPU 0 instructions: 500000002 cycles: 499375266 cumulative IPC: 1.00125 (Simulation time: 0 hr 20 min 48 sec) 

ChampSim completed all CPUs

[ROI Statistics]
Core_0_instructions 500000002
Core_0_cycles 499375266
Core_0_IPC 1.00125

Core_0_branch_prediction_accuracy 99.14567
Core_0_branch_MPKI 0.22121
Core_0_average_ROB_occupancy_at_mispredict 245.20280

Core_0_L1D_total_access 144985208
Core_0_L1D_total_hit 139278378
Core_0_L1D_total_miss 5706830
Core_0_L1D_loads 131697145
Core_0_L1D_load_hit 127401234
Core_0_L1D_load_miss 4295911
Core_0_L1D_RFOs 13288063
Core_0_L1D_RFO_hit 11877144
Core_0_L1D_RFO_miss 1410919
Core_0_L1D_prefetches 0
Core_0_L1D_prefetch_hit 0
Core_0_L1D_prefetch_miss 0
Core_0_L1D_writebacks 0
Core_0_L1D_writeback_hit 0
Core_0_L1D_writeback_miss 0
Core_0_L1D_prefetch_requested 0
Core_0_L1D_prefetch_dropped 0
Core_0_L1D_prefetch_issued 0
Core_0_L1D_prefetch_filled 0
Core_0_L1D_prefetch_useful 0
Core_0_L1D_prefetch_useless 0
Core_0_L1D_prefetch_late 0
Core_0_L1D_average_miss_latency 78.18314

Core_0_L1D_rq_access 194152240
Core_0_L1D_rq_forward 0
Core_0_L1D_rq_merged 61361634
Core_0_L1D_rq_to_cache 132790606
Core_0_L1D_rq_full 0

Core_0_L1D_wq_access 17666329
Core_0_L1D_wq_forward 0
Core_0_L1D_wq_merged 2560
Core_0_L1D_wq_to_cache 17663769
Core_0_L1D_wq_full 329

Core_0_L1D_pq_access 0
Core_0_L1D_pq_forward 0
Core_0_L1D_pq_merged 0
Core_0_L1D_pq_to_cache 0
Core_0_L1D_pq_full 0

Core_0_L1D_acc_epochs 530812
Core_0_L1D_acc_level_0 530812
Core_0_L1D_acc_level_1 0
Core_0_L1D_acc_level_2 0
Core_0_L1D_acc_level_3 0
Core_0_L1D_acc_level_4 0
Core_0_L1D_acc_level_5 0
Core_0_L1D_acc_level_6 0
Core_0_L1D_acc_level_7 0
Core_0_L1D_acc_level_8 0
Core_0_L1D_acc_level_9 0

Core_0_L1I_total_access 115139332
Core_0_L1I_total_hit 115138526
Core_0_L1I_total_miss 806
Core_0_L1I_loads 115139332
Core_0_L1I_load_hit 115138526
Core_0_L1I_load_miss 806
Core_0_L1I_RFOs 0
Core_0_L1I_RFO_hit 0
Core_0_L1I_RFO_miss 0
Core_0_L1I_prefetches 0
Core_0_L1I_prefetch_hit 0
Core_0_L1I_prefetch_miss 0
Core_0_L1I_writebacks 0
Core_0_L1I_writeback_hit 0
Core_0_L1I_writeback_miss 0
Core_0_L1I_prefetch_requested 0
Core_0_L1I_prefetch_dropped 0
Core_0_L1I_prefetch_issued 0
Core_0_L1I_prefetch_filled 0
Core_0_L1I_prefetch_useful 0
Core_0_L1I_prefetch_useless 0
Core_0_L1I_prefetch_late 0
Core_0_L1I_average_miss_latency 269.12283

Core_0_L1I_rq_access 500000001
Core_0_L1I_rq_forward 0
Core_0_L1I_rq_merged 384859473
Core_0_L1I_rq_to_cache 115140528
Core_0_L1I_rq_full 0

Core_0_L1I_wq_access 0
Core_0_L1I_wq_forward 0
Core_0_L1I_wq_merged 0
Core_0_L1I_wq_to_cache 0
Core_0_L1I_wq_full 0

Core_0_L1I_pq_access 0
Core_0_L1I_pq_forward 0
Core_0_L1I_pq_merged 0
Core_0_L1I_pq_to_cache 0
Core_0_L1I_pq_full 0

Core_0_L1I_acc_epochs 530812
Core_0_L1I_acc_level_0 530812
Core_0_L1I_acc_level_1 0
Core_0_L1I_acc_level_2 0
Core_0_L1I_acc_level_3 0
Core_0_L1I_acc_level_4 0
Core_0_L1I_acc_level_5 0
Core_0_L1I_acc_level_6 0
Core_0_L1I_acc_level_7 0
Core_0_L1I_acc_level_8 0
Core_0_L1I_acc_level_9 0

Core_0_L2C_total_access 10573767
Core_0_L2C_total_hit 6262445
Core_0_L2C_total_miss 4311322
Core_0_L2C_loads 4296681
Core_0_L2C_load_hit 3881026
Core_0_L2C_load_miss 415655
Core_0_L2C_RFOs 1410612
Core_0_L2C_RFO_hit 441305
Core_0_L2C_RFO_miss 969307
Core_0_L2C_prefetches 3021074
Core_0_L2C_prefetch_hit 96482
Core_0_L2C_prefetch_miss 2924592
Core_0_L2C_writebacks 1845400
Core_0_L2C_writeback_hit 1843632
Core_0_L2C_writeback_miss 1768
Core_0_L2C_prefetch_requested 3917047
Core_0_L2C_prefetch_dropped 0
Core_0_L2C_prefetch_issued 3917047
Core_0_L2C_prefetch_filled 3584272
Core_0_L2C_prefetch_useful 3538901
Core_0_L2C_prefetch_useless 44945
Core_0_L2C_prefetch_late 19051
Core_0_L2C_average_miss_latency 396.70594

Core_0_L2C_rq_access 5707636
Core_0_L2C_rq_forward 0
Core_0_L2C_rq_merged 0
Core_0_L2C_rq_to_cache 5707293
Core_0_L2C_rq_full 0

Core_0_L2C_wq_access 1845400
Core_0_L2C_wq_forward 343
Core_0_L2C_wq_merged 0
Core_0_L2C_wq_to_cache 1845400
Core_0_L2C_wq_full 0

Core_0_L2C_pq_access 3917047
Core_0_L2C_pq_forward 0
Core_0_L2C_pq_merged 0
Core_0_L2C_pq_to_cache 3917047
Core_0_L2C_pq_full 0

Core_0_L2C_acc_epochs 530812
Core_0_L2C_acc_level_0 289530
Core_0_L2C_acc_level_1 55640
Core_0_L2C_acc_level_2 35966
Core_0_L2C_acc_level_3 22514
Core_0_L2C_acc_level_4 17161
Core_0_L2C_acc_level_5 19614
Core_0_L2C_acc_level_6 11458
Core_0_L2C_acc_level_7 9547
Core_0_L2C_acc_level_8 7608
Core_0_L2C_acc_level_9 61774

Core_0_LLC_total_access 5806203
Core_0_LLC_total_hit 1352044
Core_0_LLC_total_miss 4454159
Core_0_LLC_loads 396612
Core_0_LLC_load_hit 165466
Core_0_LLC_load_miss 231146
Core_0_LLC_RFOs 969304
Core_0_LLC_RFO_hit 79472
Core_0_LLC_RFO_miss 889832
Core_0_LLC_prefetches 3121965
Core_0_LLC_prefetch_hit 651959
Core_0_LLC_prefetch_miss 2470006
Core_0_LLC_writebacks 1318322
Core_0_LLC_writeback_hit 455147
Core_0_LLC_writeback_miss 863175
Core_0_LLC_prefetch_requested 0
Core_0_LLC_prefetch_dropped 0
Core_0_LLC_prefetch_issued 0
Core_0_LLC_prefetch_filled 2973728
Core_0_LLC_prefetch_useful 130838
Core_0_LLC_prefetch_useless 2840409
Core_0_LLC_prefetch_late 101
Core_0_LLC_average_miss_latency 371.39070

Core_0_LLC_rq_access 1365916
Core_0_LLC_rq_forward 0
Core_0_LLC_rq_merged 0
Core_0_LLC_rq_to_cache 1365916
Core_0_LLC_rq_full 0

Core_0_LLC_wq_access 1318322
Core_0_LLC_wq_forward 3
Core_0_LLC_wq_merged 0
Core_0_LLC_wq_to_cache 1318322
Core_0_LLC_wq_full 0

Core_0_LLC_pq_access 3794317
Core_0_LLC_pq_forward 0
Core_0_LLC_pq_merged 0
Core_0_LLC_pq_to_cache 3794314
Core_0_LLC_pq_full 0

Core_0_LLC_acc_epochs 536947
Core_0_LLC_acc_level_0 514780
Core_0_LLC_acc_level_1 8885
Core_0_LLC_acc_level_2 4129
Core_0_LLC_acc_level_3 2323
Core_0_LLC_acc_level_4 1207
Core_0_LLC_acc_level_5 1683
Core_0_LLC_acc_level_6 805
Core_0_LLC_acc_level_7 633
Core_0_LLC_acc_level_8 422
Core_0_LLC_acc_level_9 2080

Core_0_major_page_fault 0
Core_0_minor_page_fault 19646

[Bingo] PHT Access: 188929
[Bingo] PHT Hit PC+Addr: 7523
[Bingo] PHT Hit PC+Offs: 169856
[Bingo] PHT Miss: 11550
[Bingo] Prefetch PC+Addr: 0
[Bingo] Prefetch PC+Offs: 0
[Bingo] Useful PC+Addr: 0
[Bingo] Useful PC+Offs: 0
[Bingo] Useless PC+Addr: 0
[Bingo] Useless PC+Offs: 0
[Bingo] L1 Prefetch per Region: 0.00000
[Bingo] L2 Prefetch per Region: 22.11955
[Bingo] L3 Prefetch per Region: 1.13789
[Bingo] No Prefetch per Region: 8.74256
[Bingo] Number of Voters Mean: 13.06607
[Bingo] Number of Voters SD: 4.51106

Channel_0_RQ_row_buffer_hit 2024293
Channel_0_RQ_row_buffer_miss 1566672
Channel_0_WQ_row_buffer_hit 431394
Channel_0_WQ_row_buffer_miss 724184
Channel_0_WQ_full 216
Channel_0_dbus_congested 3636714

avg_congested_cycle 23

DRAM_bw_pochs 2147786
DRAM_bw_level_0 1619903
DRAM_bw_level_1 179463
DRAM_bw_level_2 61398
DRAM_bw_level_3 287022
