*************************************************
   ChampSim Multicore Out-of-Order Simulator
   Last compiled: Dec 11 2024 17:59:53
*************************************************
parsing config file: /home/functionmain/桌面/Pythia/config/nopref.ini

trace_0 /home/functionmain/桌面/Pythia/traces/437.leslie3d-232B.champsimtrace.xz
adding L2C_PREFETCHER: NONE
Initialize SHIP state
warmup_instructions 100000000
simulation_instructions 500000000
champsim_seed 217
measure_ipc 0
measure_ipc_epoch 1000
measure_dram_bw 1
measure_dram_bw_epoch 256
measure_cache_acc 1
measure_cache_acc_epoch 1024
l1d_perfect 0
l2c_perfect 0
llc_perfect 0
l1d_semi_perfect 0
l2c_semi_perfect 0
llc_semi_perfect 0
semi_perfect_cache_page_buffer_size 64

num_cpus 1
cpu_freq 4000
dram_io_freq 1200
page_size 4096
block_size 64
max_read_per_cycle 8
max_fill_per_cycle 1
dram_channels 1
log2_dram_channels 0
dram_ranks 1
dram_banks 8
dram_rows 65536
dram_columns 128
dram_row_size 8
dram_size 4096
dram_pages 1048576

fetch_width 6
decode_width 6
exec_width 4
lq_width 2
sq_width 2
retire_width 4
scheduler_size 128
branch_mispredict_penalty 20
rob_size 256
lq_size 72
sq_size 56
num_instr_destinations_sparc 4
num_instr_destinations 2
num_instr_sources 4

itlb_set 16
itlb_way 8
itlb_rq_size 16
itlb_wq_size 16
itlb_pq_size 0
itlb_mshr_size 8
itlb_latency 1

dtlb_set 16
dtlb_way 4
dtlb_rq_size 16
dtlb_wq_size 16
dtlb_pq_size 0
dtlb_mshr_size 8
dtlb_latency 1

stlb_set 128
stlb_way 12
stlb_rq_size 32
stlb_wq_size 32
stlb_pq_size 0
stlb_mshr_size 16
stlb_latency 8

l1i_size 32
l1i_set 64
l1i_way 8
l1i_rq_size 64
l1i_wq_size 64
l1i_pq_size 8
l1i_mshr_size 8
l1i_latency 1

l1d_size 32
l1d_set 64
l1d_way 8
l1d_rq_size 64
l1d_wq_size 64
l1d_pq_size 8
l1d_mshr_size 16
l1d_latency 4

l2c_size 256
l2c_set 512
l2c_way 8
l2c_rq_size 32
l2c_wq_size 32
l2c_pq_size 32
l2c_mshr_size 32
l2c_latency 10

llc_size 2048
llc_set 2048
llc_way 16
llc_rq_size 32
llc_wq_size 32
llc_pq_size 32
llc_mshr_size 64
llc_latency 20

dram_channel_width 8
dram_wq_size 64
dram_rq_size 64
tRP 15
tRCD 15
tCAS 12.5
dram_dbus_turn_around_time 30
dram_write_high_wm 56
dram_write_low_wm 48
min_dram_writes_per_switch 16
dram_mtps 1200
dram_dbus_return_time 26


Heartbeat CPU  0 instructions:    1000000 cycles:     488175 heartbeat IPC: 2.04845 cumulative IPC: 2.04845 (Simulation time: 0 hr 0 min 1 sec) 
Heartbeat CPU  0 instructions:    2000001 cycles:     995179 heartbeat IPC: 1.97237 cumulative IPC: 2.00969 (Simulation time: 0 hr 0 min 3 sec) 
Heartbeat CPU  0 instructions:    3000003 cycles:    1550933 heartbeat IPC: 1.79936 cumulative IPC: 1.93432 (Simulation time: 0 hr 0 min 5 sec) 
Heartbeat CPU  0 instructions:    4000000 cycles:    2073909 heartbeat IPC: 1.91213 cumulative IPC: 1.92872 (Simulation time: 0 hr 0 min 6 sec) 
Heartbeat CPU  0 instructions:    5000002 cycles:    2561903 heartbeat IPC: 2.04921 cumulative IPC: 1.95167 (Simulation time: 0 hr 0 min 8 sec) 
Heartbeat CPU  0 instructions:    6000003 cycles:    3049484 heartbeat IPC: 2.05094 cumulative IPC: 1.96755 (Simulation time: 0 hr 0 min 10 sec) 
Heartbeat CPU  0 instructions:    7000001 cycles:    3537343 heartbeat IPC: 2.04977 cumulative IPC: 1.97889 (Simulation time: 0 hr 0 min 12 sec) 
Heartbeat CPU  0 instructions:    8000000 cycles:    4025245 heartbeat IPC: 2.04959 cumulative IPC: 1.98746 (Simulation time: 0 hr 0 min 13 sec) 
Heartbeat CPU  0 instructions:    9000000 cycles:    4513531 heartbeat IPC: 2.04798 cumulative IPC: 1.99400 (Simulation time: 0 hr 0 min 15 sec) 
Heartbeat CPU  0 instructions:   10000003 cycles:    5001900 heartbeat IPC: 2.04764 cumulative IPC: 1.99924 (Simulation time: 0 hr 0 min 17 sec) 
Heartbeat CPU  0 instructions:   11000000 cycles:    5490435 heartbeat IPC: 2.04693 cumulative IPC: 2.00348 (Simulation time: 0 hr 0 min 19 sec) 
Heartbeat CPU  0 instructions:   12000000 cycles:    5978549 heartbeat IPC: 2.04870 cumulative IPC: 2.00718 (Simulation time: 0 hr 0 min 20 sec) 
Heartbeat CPU  0 instructions:   13000001 cycles:    6523488 heartbeat IPC: 1.83507 cumulative IPC: 1.99280 (Simulation time: 0 hr 0 min 22 sec) 
Heartbeat CPU  0 instructions:   14000001 cycles:    7076920 heartbeat IPC: 1.80691 cumulative IPC: 1.97826 (Simulation time: 0 hr 0 min 24 sec) 
Heartbeat CPU  0 instructions:   15000000 cycles:    7564664 heartbeat IPC: 2.05025 cumulative IPC: 1.98290 (Simulation time: 0 hr 0 min 26 sec) 
Heartbeat CPU  0 instructions:   16000000 cycles:    8052612 heartbeat IPC: 2.04940 cumulative IPC: 1.98693 (Simulation time: 0 hr 0 min 27 sec) 
Heartbeat CPU  0 instructions:   17000003 cycles:    8540561 heartbeat IPC: 2.04940 cumulative IPC: 1.99050 (Simulation time: 0 hr 0 min 29 sec) 
Heartbeat CPU  0 instructions:   18000003 cycles:    9028618 heartbeat IPC: 2.04894 cumulative IPC: 1.99366 (Simulation time: 0 hr 0 min 31 sec) 
Heartbeat CPU  0 instructions:   19000001 cycles:    9516742 heartbeat IPC: 2.04866 cumulative IPC: 1.99648 (Simulation time: 0 hr 0 min 33 sec) 
Heartbeat CPU  0 instructions:   20000000 cycles:   10005291 heartbeat IPC: 2.04688 cumulative IPC: 1.99894 (Simulation time: 0 hr 0 min 34 sec) 
Heartbeat CPU  0 instructions:   21000000 cycles:   10493845 heartbeat IPC: 2.04686 cumulative IPC: 2.00117 (Simulation time: 0 hr 0 min 36 sec) 
Heartbeat CPU  0 instructions:   22000002 cycles:   10981862 heartbeat IPC: 2.04911 cumulative IPC: 2.00330 (Simulation time: 0 hr 0 min 38 sec) 
Heartbeat CPU  0 instructions:   23000002 cycles:   11495790 heartbeat IPC: 1.94580 cumulative IPC: 2.00073 (Simulation time: 0 hr 0 min 40 sec) 
Heartbeat CPU  0 instructions:   24000000 cycles:   12051931 heartbeat IPC: 1.79810 cumulative IPC: 1.99138 (Simulation time: 0 hr 0 min 41 sec) 
Heartbeat CPU  0 instructions:   25000001 cycles:   12566174 heartbeat IPC: 1.94461 cumulative IPC: 1.98947 (Simulation time: 0 hr 0 min 43 sec) 
Heartbeat CPU  0 instructions:   26000001 cycles:   13054456 heartbeat IPC: 2.04800 cumulative IPC: 1.99166 (Simulation time: 0 hr 0 min 45 sec) 
Heartbeat CPU  0 instructions:   27000000 cycles:   13542471 heartbeat IPC: 2.04912 cumulative IPC: 1.99373 (Simulation time: 0 hr 0 min 46 sec) 
Heartbeat CPU  0 instructions:   28000000 cycles:   14031002 heartbeat IPC: 2.04695 cumulative IPC: 1.99558 (Simulation time: 0 hr 0 min 48 sec) 
Heartbeat CPU  0 instructions:   29000002 cycles:   14519391 heartbeat IPC: 2.04755 cumulative IPC: 1.99733 (Simulation time: 0 hr 0 min 50 sec) 
Heartbeat CPU  0 instructions:   30000001 cycles:   15007994 heartbeat IPC: 2.04665 cumulative IPC: 1.99893 (Simulation time: 0 hr 0 min 52 sec) 
Heartbeat CPU  0 instructions:   31000001 cycles:   15495767 heartbeat IPC: 2.05013 cumulative IPC: 2.00055 (Simulation time: 0 hr 0 min 53 sec) 
Heartbeat CPU  0 instructions:   32000000 cycles:   15983503 heartbeat IPC: 2.05029 cumulative IPC: 2.00206 (Simulation time: 0 hr 0 min 55 sec) 
Heartbeat CPU  0 instructions:   33000002 cycles:   16471467 heartbeat IPC: 2.04934 cumulative IPC: 2.00346 (Simulation time: 0 hr 0 min 57 sec) 
Heartbeat CPU  0 instructions:   34000001 cycles:   17025132 heartbeat IPC: 1.80614 cumulative IPC: 1.99705 (Simulation time: 0 hr 0 min 59 sec) 
Heartbeat CPU  0 instructions:   35000001 cycles:   17570601 heartbeat IPC: 1.83328 cumulative IPC: 1.99196 (Simulation time: 0 hr 1 min 0 sec) 
Heartbeat CPU  0 instructions:   36000000 cycles:   18058603 heartbeat IPC: 2.04917 cumulative IPC: 1.99351 (Simulation time: 0 hr 1 min 2 sec) 
Heartbeat CPU  0 instructions:   37000003 cycles:   18547330 heartbeat IPC: 2.04614 cumulative IPC: 1.99490 (Simulation time: 0 hr 1 min 4 sec) 
Heartbeat CPU  0 instructions:   38000001 cycles:   19035699 heartbeat IPC: 2.04763 cumulative IPC: 1.99625 (Simulation time: 0 hr 1 min 6 sec) 
Heartbeat CPU  0 instructions:   39000002 cycles:   19523997 heartbeat IPC: 2.04793 cumulative IPC: 1.99754 (Simulation time: 0 hr 1 min 7 sec) 
Heartbeat CPU  0 instructions:   40000000 cycles:   20011591 heartbeat IPC: 2.05088 cumulative IPC: 1.99884 (Simulation time: 0 hr 1 min 9 sec) 
Heartbeat CPU  0 instructions:   41000001 cycles:   20499197 heartbeat IPC: 2.05084 cumulative IPC: 2.00008 (Simulation time: 0 hr 1 min 11 sec) 
Heartbeat CPU  0 instructions:   42000001 cycles:   20987050 heartbeat IPC: 2.04980 cumulative IPC: 2.00123 (Simulation time: 0 hr 1 min 13 sec) 
Heartbeat CPU  0 instructions:   43000001 cycles:   21475135 heartbeat IPC: 2.04882 cumulative IPC: 2.00232 (Simulation time: 0 hr 1 min 14 sec) 
Heartbeat CPU  0 instructions:   44000000 cycles:   21998034 heartbeat IPC: 1.91241 cumulative IPC: 2.00018 (Simulation time: 0 hr 1 min 16 sec) 
Heartbeat CPU  0 instructions:   45000000 cycles:   22555479 heartbeat IPC: 1.79390 cumulative IPC: 1.99508 (Simulation time: 0 hr 1 min 18 sec) 
Heartbeat CPU  0 instructions:   46000002 cycles:   23063076 heartbeat IPC: 1.97007 cumulative IPC: 1.99453 (Simulation time: 0 hr 1 min 19 sec) 
Heartbeat CPU  0 instructions:   47000002 cycles:   23551479 heartbeat IPC: 2.04749 cumulative IPC: 1.99563 (Simulation time: 0 hr 1 min 21 sec) 
Heartbeat CPU  0 instructions:   48000000 cycles:   24039394 heartbeat IPC: 2.04953 cumulative IPC: 1.99672 (Simulation time: 0 hr 1 min 23 sec) 
Heartbeat CPU  0 instructions:   49000002 cycles:   24527142 heartbeat IPC: 2.05024 cumulative IPC: 1.99779 (Simulation time: 0 hr 1 min 25 sec) 
Heartbeat CPU  0 instructions:   50000000 cycles:   25015211 heartbeat IPC: 2.04889 cumulative IPC: 1.99878 (Simulation time: 0 hr 1 min 26 sec) 
Heartbeat CPU  0 instructions:   51000002 cycles:   25503121 heartbeat IPC: 2.04956 cumulative IPC: 1.99976 (Simulation time: 0 hr 1 min 28 sec) 
Heartbeat CPU  0 instructions:   52000000 cycles:   25991435 heartbeat IPC: 2.04786 cumulative IPC: 2.00066 (Simulation time: 0 hr 1 min 30 sec) 
Heartbeat CPU  0 instructions:   53000000 cycles:   26479585 heartbeat IPC: 2.04855 cumulative IPC: 2.00154 (Simulation time: 0 hr 1 min 32 sec) 
Heartbeat CPU  0 instructions:   54000000 cycles:   26971967 heartbeat IPC: 2.03094 cumulative IPC: 2.00208 (Simulation time: 0 hr 1 min 33 sec) 
Heartbeat CPU  0 instructions:   55000002 cycles:   27528710 heartbeat IPC: 1.79616 cumulative IPC: 1.99791 (Simulation time: 0 hr 1 min 35 sec) 
Heartbeat CPU  0 instructions:   56000000 cycles:   28067272 heartbeat IPC: 1.85679 cumulative IPC: 1.99521 (Simulation time: 0 hr 1 min 37 sec) 
Heartbeat CPU  0 instructions:   57000000 cycles:   28554896 heartbeat IPC: 2.05076 cumulative IPC: 1.99616 (Simulation time: 0 hr 1 min 39 sec) 
Heartbeat CPU  0 instructions:   58000003 cycles:   29042493 heartbeat IPC: 2.05088 cumulative IPC: 1.99707 (Simulation time: 0 hr 1 min 40 sec) 
Heartbeat CPU  0 instructions:   59000001 cycles:   29530262 heartbeat IPC: 2.05015 cumulative IPC: 1.99795 (Simulation time: 0 hr 1 min 42 sec) 
Heartbeat CPU  0 instructions:   60000000 cycles:   30018388 heartbeat IPC: 2.04865 cumulative IPC: 1.99877 (Simulation time: 0 hr 1 min 44 sec) 
Heartbeat CPU  0 instructions:   61000000 cycles:   30506522 heartbeat IPC: 2.04862 cumulative IPC: 1.99957 (Simulation time: 0 hr 1 min 46 sec) 
Heartbeat CPU  0 instructions:   62000000 cycles:   30995110 heartbeat IPC: 2.04671 cumulative IPC: 2.00032 (Simulation time: 0 hr 1 min 47 sec) 
Heartbeat CPU  0 instructions:   63000002 cycles:   31483416 heartbeat IPC: 2.04790 cumulative IPC: 2.00105 (Simulation time: 0 hr 1 min 49 sec) 
Heartbeat CPU  0 instructions:   64000000 cycles:   31971698 heartbeat IPC: 2.04799 cumulative IPC: 2.00177 (Simulation time: 0 hr 1 min 51 sec) 
Heartbeat CPU  0 instructions:   65000000 cycles:   32500798 heartbeat IPC: 1.89000 cumulative IPC: 1.99995 (Simulation time: 0 hr 1 min 53 sec) 
Heartbeat CPU  0 instructions:   66000001 cycles:   33056972 heartbeat IPC: 1.79800 cumulative IPC: 1.99655 (Simulation time: 0 hr 1 min 54 sec) 
Heartbeat CPU  0 instructions:   67000000 cycles:   33556378 heartbeat IPC: 2.00238 cumulative IPC: 1.99664 (Simulation time: 0 hr 1 min 56 sec) 
Heartbeat CPU  0 instructions:   68000000 cycles:   34044205 heartbeat IPC: 2.04991 cumulative IPC: 1.99740 (Simulation time: 0 hr 1 min 58 sec) 
Heartbeat CPU  0 instructions:   69000001 cycles:   34532392 heartbeat IPC: 2.04840 cumulative IPC: 1.99812 (Simulation time: 0 hr 1 min 59 sec) 
Heartbeat CPU  0 instructions:   70000001 cycles:   35020431 heartbeat IPC: 2.04902 cumulative IPC: 1.99883 (Simulation time: 0 hr 2 min 1 sec) 
Heartbeat CPU  0 instructions:   71000003 cycles:   35508970 heartbeat IPC: 2.04692 cumulative IPC: 1.99949 (Simulation time: 0 hr 2 min 3 sec) 
Heartbeat CPU  0 instructions:   72000000 cycles:   35997443 heartbeat IPC: 2.04719 cumulative IPC: 2.00014 (Simulation time: 0 hr 2 min 5 sec) 
Heartbeat CPU  0 instructions:   73000001 cycles:   36486001 heartbeat IPC: 2.04684 cumulative IPC: 2.00077 (Simulation time: 0 hr 2 min 6 sec) 
Heartbeat CPU  0 instructions:   74000000 cycles:   36973706 heartbeat IPC: 2.05042 cumulative IPC: 2.00142 (Simulation time: 0 hr 2 min 8 sec) 
Heartbeat CPU  0 instructions:   75000001 cycles:   37472861 heartbeat IPC: 2.00339 cumulative IPC: 2.00145 (Simulation time: 0 hr 2 min 10 sec) 
Heartbeat CPU  0 instructions:   76000000 cycles:   38030323 heartbeat IPC: 1.79384 cumulative IPC: 1.99841 (Simulation time: 0 hr 2 min 12 sec) 
Heartbeat CPU  0 instructions:   77000002 cycles:   38560247 heartbeat IPC: 1.88707 cumulative IPC: 1.99688 (Simulation time: 0 hr 2 min 13 sec) 
Heartbeat CPU  0 instructions:   78000001 cycles:   39048297 heartbeat IPC: 2.04897 cumulative IPC: 1.99753 (Simulation time: 0 hr 2 min 15 sec) 
Heartbeat CPU  0 instructions:   79000001 cycles:   39536807 heartbeat IPC: 2.04704 cumulative IPC: 1.99814 (Simulation time: 0 hr 2 min 17 sec) 
Heartbeat CPU  0 instructions:   80000000 cycles:   40025145 heartbeat IPC: 2.04776 cumulative IPC: 1.99874 (Simulation time: 0 hr 2 min 19 sec) 
Heartbeat CPU  0 instructions:   81000003 cycles:   40513580 heartbeat IPC: 2.04736 cumulative IPC: 1.99933 (Simulation time: 0 hr 2 min 20 sec) 
Heartbeat CPU  0 instructions:   82000001 cycles:   41001565 heartbeat IPC: 2.04924 cumulative IPC: 1.99992 (Simulation time: 0 hr 2 min 22 sec) 
Heartbeat CPU  0 instructions:   83000000 cycles:   41489285 heartbeat IPC: 2.05035 cumulative IPC: 2.00052 (Simulation time: 0 hr 2 min 24 sec) 
Heartbeat CPU  0 instructions:   84000000 cycles:   41976959 heartbeat IPC: 2.05055 cumulative IPC: 2.00110 (Simulation time: 0 hr 2 min 26 sec) 
Heartbeat CPU  0 instructions:   85000002 cycles:   42464815 heartbeat IPC: 2.04979 cumulative IPC: 2.00166 (Simulation time: 0 hr 2 min 27 sec) 
Heartbeat CPU  0 instructions:   86000000 cycles:   43003768 heartbeat IPC: 1.85545 cumulative IPC: 1.99982 (Simulation time: 0 hr 2 min 29 sec) 
Heartbeat CPU  0 instructions:   87000002 cycles:   43561066 heartbeat IPC: 1.79438 cumulative IPC: 1.99720 (Simulation time: 0 hr 2 min 31 sec) 
Heartbeat CPU  0 instructions:   88000000 cycles:   44075332 heartbeat IPC: 1.94452 cumulative IPC: 1.99658 (Simulation time: 0 hr 2 min 33 sec) 
Heartbeat CPU  0 instructions:   89000002 cycles:   44605439 heartbeat IPC: 1.88642 cumulative IPC: 1.99527 (Simulation time: 0 hr 2 min 34 sec) 
Heartbeat CPU  0 instructions:   90000002 cycles:   45134897 heartbeat IPC: 1.88872 cumulative IPC: 1.99402 (Simulation time: 0 hr 2 min 36 sec) 
Heartbeat CPU  0 instructions:   91000003 cycles:   45664359 heartbeat IPC: 1.88871 cumulative IPC: 1.99280 (Simulation time: 0 hr 2 min 38 sec) 
Heartbeat CPU  0 instructions:   92000000 cycles:   46194023 heartbeat IPC: 1.88798 cumulative IPC: 1.99160 (Simulation time: 0 hr 2 min 40 sec) 
Heartbeat CPU  0 instructions:   93000001 cycles:   46723291 heartbeat IPC: 1.88940 cumulative IPC: 1.99044 (Simulation time: 0 hr 2 min 41 sec) 
Heartbeat CPU  0 instructions:   94000003 cycles:   47253444 heartbeat IPC: 1.88625 cumulative IPC: 1.98927 (Simulation time: 0 hr 2 min 43 sec) 
Heartbeat CPU  0 instructions:   95000003 cycles:   47782887 heartbeat IPC: 1.88878 cumulative IPC: 1.98816 (Simulation time: 0 hr 2 min 45 sec) 
Heartbeat CPU  0 instructions:   96000000 cycles:   48311847 heartbeat IPC: 1.89050 cumulative IPC: 1.98709 (Simulation time: 0 hr 2 min 47 sec) 
Heartbeat CPU  0 instructions:   97000003 cycles:   48842056 heartbeat IPC: 1.88605 cumulative IPC: 1.98599 (Simulation time: 0 hr 2 min 49 sec) 
Heartbeat CPU  0 instructions:   98000002 cycles:   49371697 heartbeat IPC: 1.88807 cumulative IPC: 1.98494 (Simulation time: 0 hr 2 min 50 sec) 
Heartbeat CPU  0 instructions:   99000002 cycles:   49901520 heartbeat IPC: 1.88742 cumulative IPC: 1.98391 (Simulation time: 0 hr 2 min 52 sec) 
Heartbeat CPU  0 instructions:  100000000 cycles:   50430913 heartbeat IPC: 1.88895 cumulative IPC: 1.98291 (Simulation time: 0 hr 2 min 54 sec) 

Warmup complete CPU  0 instructions:  100000001 cycles:   50430914 (Simulation time: 0 hr 2 min 54 sec) 

Heartbeat CPU  0 instructions:  101000002 cycles:   51925380 heartbeat IPC: 0.66914 cumulative IPC: 0.66914 (Simulation time: 0 hr 2 min 56 sec) 
Heartbeat CPU  0 instructions:  102000002 cycles:   53387612 heartbeat IPC: 0.68389 cumulative IPC: 0.67643 (Simulation time: 0 hr 2 min 59 sec) 
Heartbeat CPU  0 instructions:  103000000 cycles:   54968126 heartbeat IPC: 0.63270 cumulative IPC: 0.66120 (Simulation time: 0 hr 3 min 1 sec) 
Heartbeat CPU  0 instructions:  104000000 cycles:   56623114 heartbeat IPC: 0.60423 cumulative IPC: 0.64597 (Simulation time: 0 hr 3 min 3 sec) 
Heartbeat CPU  0 instructions:  105000002 cycles:   58288926 heartbeat IPC: 0.60031 cumulative IPC: 0.63629 (Simulation time: 0 hr 3 min 6 sec) 
Heartbeat CPU  0 instructions:  106000002 cycles:   59942967 heartbeat IPC: 0.60458 cumulative IPC: 0.63078 (Simulation time: 0 hr 3 min 8 sec) 
Heartbeat CPU  0 instructions:  107000003 cycles:   61598677 heartbeat IPC: 0.60397 cumulative IPC: 0.62680 (Simulation time: 0 hr 3 min 10 sec) 
Heartbeat CPU  0 instructions:  108000000 cycles:   63258089 heartbeat IPC: 0.60262 cumulative IPC: 0.62368 (Simulation time: 0 hr 3 min 13 sec) 
Heartbeat CPU  0 instructions:  109000002 cycles:   65297799 heartbeat IPC: 0.49027 cumulative IPC: 0.60537 (Simulation time: 0 hr 3 min 15 sec) 
Heartbeat CPU  0 instructions:  110000000 cycles:   66812587 heartbeat IPC: 0.66016 cumulative IPC: 0.61044 (Simulation time: 0 hr 3 min 18 sec) 
Heartbeat CPU  0 instructions:  111000000 cycles:   68249328 heartbeat IPC: 0.69602 cumulative IPC: 0.61734 (Simulation time: 0 hr 3 min 20 sec) 
Heartbeat CPU  0 instructions:  112000000 cycles:   69713929 heartbeat IPC: 0.68278 cumulative IPC: 0.62231 (Simulation time: 0 hr 3 min 22 sec) 
Heartbeat CPU  0 instructions:  113000001 cycles:   71238986 heartbeat IPC: 0.65571 cumulative IPC: 0.62476 (Simulation time: 0 hr 3 min 25 sec) 
Heartbeat CPU  0 instructions:  114000002 cycles:   72914592 heartbeat IPC: 0.59680 cumulative IPC: 0.62267 (Simulation time: 0 hr 3 min 27 sec) 
Heartbeat CPU  0 instructions:  115000001 cycles:   74597087 heartbeat IPC: 0.59435 cumulative IPC: 0.62070 (Simulation time: 0 hr 3 min 29 sec) 
Heartbeat CPU  0 instructions:  116000000 cycles:   76255675 heartbeat IPC: 0.60292 cumulative IPC: 0.61956 (Simulation time: 0 hr 3 min 32 sec) 
Heartbeat CPU  0 instructions:  117000002 cycles:   77919872 heartbeat IPC: 0.60089 cumulative IPC: 0.61843 (Simulation time: 0 hr 3 min 34 sec) 
Heartbeat CPU  0 instructions:  118000000 cycles:   79573549 heartbeat IPC: 0.60471 cumulative IPC: 0.61765 (Simulation time: 0 hr 3 min 37 sec) 
Heartbeat CPU  0 instructions:  119000002 cycles:   81614182 heartbeat IPC: 0.49005 cumulative IPC: 0.60930 (Simulation time: 0 hr 3 min 39 sec) 
Heartbeat CPU  0 instructions:  120000000 cycles:   83319959 heartbeat IPC: 0.58624 cumulative IPC: 0.60811 (Simulation time: 0 hr 3 min 42 sec) 
Heartbeat CPU  0 instructions:  121000003 cycles:   84777885 heartbeat IPC: 0.68591 cumulative IPC: 0.61141 (Simulation time: 0 hr 3 min 44 sec) 
Heartbeat CPU  0 instructions:  122000003 cycles:   86298928 heartbeat IPC: 0.65744 cumulative IPC: 0.61336 (Simulation time: 0 hr 3 min 46 sec) 
Heartbeat CPU  0 instructions:  123000000 cycles:   87852209 heartbeat IPC: 0.64380 cumulative IPC: 0.61462 (Simulation time: 0 hr 3 min 48 sec) 
Heartbeat CPU  0 instructions:  124000000 cycles:   89479931 heartbeat IPC: 0.61436 cumulative IPC: 0.61461 (Simulation time: 0 hr 3 min 51 sec) 
Heartbeat CPU  0 instructions:  125000003 cycles:   91169922 heartbeat IPC: 0.59172 cumulative IPC: 0.61366 (Simulation time: 0 hr 3 min 53 sec) 
Heartbeat CPU  0 instructions:  126000000 cycles:   92841429 heartbeat IPC: 0.59826 cumulative IPC: 0.61306 (Simulation time: 0 hr 3 min 56 sec) 
Heartbeat CPU  0 instructions:  127000000 cycles:   94504681 heartbeat IPC: 0.60123 cumulative IPC: 0.61261 (Simulation time: 0 hr 3 min 58 sec) 
Heartbeat CPU  0 instructions:  128000000 cycles:   96162306 heartbeat IPC: 0.60327 cumulative IPC: 0.61227 (Simulation time: 0 hr 4 min 0 sec) 
Heartbeat CPU  0 instructions:  129000002 cycles:   97862276 heartbeat IPC: 0.58825 cumulative IPC: 0.61141 (Simulation time: 0 hr 4 min 3 sec) 
Heartbeat CPU  0 instructions:  130000001 cycles:   99959650 heartbeat IPC: 0.47679 cumulative IPC: 0.60571 (Simulation time: 0 hr 4 min 5 sec) 
Heartbeat CPU  0 instructions:  131000002 cycles:  101485415 heartbeat IPC: 0.65541 cumulative IPC: 0.60719 (Simulation time: 0 hr 4 min 8 sec) 
Heartbeat CPU  0 instructions:  132000000 cycles:  102986195 heartbeat IPC: 0.66632 cumulative IPC: 0.60888 (Simulation time: 0 hr 4 min 10 sec) 
Heartbeat CPU  0 instructions:  133000000 cycles:  104550036 heartbeat IPC: 0.63945 cumulative IPC: 0.60977 (Simulation time: 0 hr 4 min 12 sec) 
Heartbeat CPU  0 instructions:  134000000 cycles:  106135419 heartbeat IPC: 0.63076 cumulative IPC: 0.61036 (Simulation time: 0 hr 4 min 15 sec) 
Heartbeat CPU  0 instructions:  135000002 cycles:  107810239 heartbeat IPC: 0.59708 cumulative IPC: 0.60998 (Simulation time: 0 hr 4 min 17 sec) 
Heartbeat CPU  0 instructions:  136000000 cycles:  109462947 heartbeat IPC: 0.60507 cumulative IPC: 0.60984 (Simulation time: 0 hr 4 min 19 sec) 
Heartbeat CPU  0 instructions:  137000001 cycles:  111119395 heartbeat IPC: 0.60370 cumulative IPC: 0.60967 (Simulation time: 0 hr 4 min 22 sec) 
Heartbeat CPU  0 instructions:  138000003 cycles:  112776863 heartbeat IPC: 0.60333 cumulative IPC: 0.60950 (Simulation time: 0 hr 4 min 24 sec) 
Heartbeat CPU  0 instructions:  139000000 cycles:  114430926 heartbeat IPC: 0.60457 cumulative IPC: 0.60937 (Simulation time: 0 hr 4 min 27 sec) 
Heartbeat CPU  0 instructions:  140000000 cycles:  116664834 heartbeat IPC: 0.44765 cumulative IPC: 0.60392 (Simulation time: 0 hr 4 min 29 sec) 
Heartbeat CPU  0 instructions:  141000001 cycles:  119244379 heartbeat IPC: 0.38767 cumulative IPC: 0.59581 (Simulation time: 0 hr 4 min 32 sec) 
Heartbeat CPU  0 instructions:  142000001 cycles:  121808927 heartbeat IPC: 0.38993 cumulative IPC: 0.58842 (Simulation time: 0 hr 4 min 34 sec) 
Heartbeat CPU  0 instructions:  143000000 cycles:  124322357 heartbeat IPC: 0.39786 cumulative IPC: 0.58193 (Simulation time: 0 hr 4 min 37 sec) 
Heartbeat CPU  0 instructions:  144000000 cycles:  126803413 heartbeat IPC: 0.40305 cumulative IPC: 0.57612 (Simulation time: 0 hr 4 min 40 sec) 
Heartbeat CPU  0 instructions:  145000001 cycles:  129255182 heartbeat IPC: 0.40787 cumulative IPC: 0.57089 (Simulation time: 0 hr 4 min 42 sec) 
Heartbeat CPU  0 instructions:  146000001 cycles:  131732759 heartbeat IPC: 0.40362 cumulative IPC: 0.56579 (Simulation time: 0 hr 4 min 45 sec) 
Heartbeat CPU  0 instructions:  147000002 cycles:  134244180 heartbeat IPC: 0.39818 cumulative IPC: 0.56077 (Simulation time: 0 hr 4 min 48 sec) 
Heartbeat CPU  0 instructions:  148000000 cycles:  136758639 heartbeat IPC: 0.39770 cumulative IPC: 0.55602 (Simulation time: 0 hr 4 min 50 sec) 
Heartbeat CPU  0 instructions:  149000000 cycles:  139307582 heartbeat IPC: 0.39232 cumulative IPC: 0.55133 (Simulation time: 0 hr 4 min 53 sec) 
Heartbeat CPU  0 instructions:  150000001 cycles:  141798506 heartbeat IPC: 0.40146 cumulative IPC: 0.54724 (Simulation time: 0 hr 4 min 55 sec) 
Heartbeat CPU  0 instructions:  151000002 cycles:  144262508 heartbeat IPC: 0.40584 cumulative IPC: 0.54353 (Simulation time: 0 hr 4 min 58 sec) 
Heartbeat CPU  0 instructions:  152000000 cycles:  146712998 heartbeat IPC: 0.40808 cumulative IPC: 0.54008 (Simulation time: 0 hr 5 min 0 sec) 
Heartbeat CPU  0 instructions:  153000002 cycles:  149156272 heartbeat IPC: 0.40929 cumulative IPC: 0.53684 (Simulation time: 0 hr 5 min 3 sec) 
Heartbeat CPU  0 instructions:  154000000 cycles:  151599604 heartbeat IPC: 0.40928 cumulative IPC: 0.53376 (Simulation time: 0 hr 5 min 6 sec) 
Heartbeat CPU  0 instructions:  155000003 cycles:  154104096 heartbeat IPC: 0.39928 cumulative IPC: 0.53051 (Simulation time: 0 hr 5 min 8 sec) 
Heartbeat CPU  0 instructions:  156000000 cycles:  156637079 heartbeat IPC: 0.39479 cumulative IPC: 0.52728 (Simulation time: 0 hr 5 min 11 sec) 
Heartbeat CPU  0 instructions:  157000003 cycles:  159199471 heartbeat IPC: 0.39026 cumulative IPC: 0.52405 (Simulation time: 0 hr 5 min 13 sec) 
Heartbeat CPU  0 instructions:  158000003 cycles:  161738426 heartbeat IPC: 0.39386 cumulative IPC: 0.52108 (Simulation time: 0 hr 5 min 16 sec) 
Heartbeat CPU  0 instructions:  159000003 cycles:  164237208 heartbeat IPC: 0.40019 cumulative IPC: 0.51842 (Simulation time: 0 hr 5 min 19 sec) 
Heartbeat CPU  0 instructions:  160000000 cycles:  166707249 heartbeat IPC: 0.40485 cumulative IPC: 0.51601 (Simulation time: 0 hr 5 min 21 sec) 
Heartbeat CPU  0 instructions:  161000001 cycles:  169172482 heartbeat IPC: 0.40564 cumulative IPC: 0.51372 (Simulation time: 0 hr 5 min 24 sec) 
Heartbeat CPU  0 instructions:  162000001 cycles:  171492558 heartbeat IPC: 0.43102 cumulative IPC: 0.51214 (Simulation time: 0 hr 5 min 26 sec) 
Heartbeat CPU  0 instructions:  163000002 cycles:  173645047 heartbeat IPC: 0.46458 cumulative IPC: 0.51130 (Simulation time: 0 hr 5 min 29 sec) 
Heartbeat CPU  0 instructions:  164000000 cycles:  175887293 heartbeat IPC: 0.44598 cumulative IPC: 0.51014 (Simulation time: 0 hr 5 min 32 sec) 
Heartbeat CPU  0 instructions:  165000000 cycles:  178096663 heartbeat IPC: 0.45262 cumulative IPC: 0.50914 (Simulation time: 0 hr 5 min 35 sec) 
Heartbeat CPU  0 instructions:  166000002 cycles:  180232947 heartbeat IPC: 0.46810 cumulative IPC: 0.50847 (Simulation time: 0 hr 5 min 38 sec) 
Heartbeat CPU  0 instructions:  167000002 cycles:  182358943 heartbeat IPC: 0.47037 cumulative IPC: 0.50785 (Simulation time: 0 hr 5 min 41 sec) 
Heartbeat CPU  0 instructions:  168000000 cycles:  184483622 heartbeat IPC: 0.47066 cumulative IPC: 0.50726 (Simulation time: 0 hr 5 min 44 sec) 
Heartbeat CPU  0 instructions:  169000002 cycles:  186573356 heartbeat IPC: 0.47853 cumulative IPC: 0.50682 (Simulation time: 0 hr 5 min 46 sec) 
Heartbeat CPU  0 instructions:  170000002 cycles:  188698881 heartbeat IPC: 0.47047 cumulative IPC: 0.50626 (Simulation time: 0 hr 5 min 49 sec) 
Heartbeat CPU  0 instructions:  171000003 cycles:  190808073 heartbeat IPC: 0.47412 cumulative IPC: 0.50578 (Simulation time: 0 hr 5 min 52 sec) 
Heartbeat CPU  0 instructions:  172000000 cycles:  192812254 heartbeat IPC: 0.49896 cumulative IPC: 0.50568 (Simulation time: 0 hr 5 min 55 sec) 
Heartbeat CPU  0 instructions:  173000003 cycles:  194732967 heartbeat IPC: 0.52064 cumulative IPC: 0.50588 (Simulation time: 0 hr 5 min 57 sec) 
Heartbeat CPU  0 instructions:  174000000 cycles:  196639107 heartbeat IPC: 0.52462 cumulative IPC: 0.50613 (Simulation time: 0 hr 6 min 0 sec) 
Heartbeat CPU  0 instructions:  175000000 cycles:  198563623 heartbeat IPC: 0.51961 cumulative IPC: 0.50630 (Simulation time: 0 hr 6 min 3 sec) 
Heartbeat CPU  0 instructions:  176000000 cycles:  200456647 heartbeat IPC: 0.52826 cumulative IPC: 0.50658 (Simulation time: 0 hr 6 min 6 sec) 
Heartbeat CPU  0 instructions:  177000003 cycles:  202289826 heartbeat IPC: 0.54550 cumulative IPC: 0.50705 (Simulation time: 0 hr 6 min 8 sec) 
Heartbeat CPU  0 instructions:  178000001 cycles:  204122469 heartbeat IPC: 0.54566 cumulative IPC: 0.50751 (Simulation time: 0 hr 6 min 11 sec) 
Heartbeat CPU  0 instructions:  179000000 cycles:  206016156 heartbeat IPC: 0.52807 cumulative IPC: 0.50776 (Simulation time: 0 hr 6 min 14 sec) 
Heartbeat CPU  0 instructions:  180000000 cycles:  207874274 heartbeat IPC: 0.53818 cumulative IPC: 0.50812 (Simulation time: 0 hr 6 min 16 sec) 
Heartbeat CPU  0 instructions:  181000000 cycles:  209768820 heartbeat IPC: 0.52783 cumulative IPC: 0.50835 (Simulation time: 0 hr 6 min 19 sec) 
Heartbeat CPU  0 instructions:  182000001 cycles:  211666163 heartbeat IPC: 0.52705 cumulative IPC: 0.50857 (Simulation time: 0 hr 6 min 22 sec) 
Heartbeat CPU  0 instructions:  183000003 cycles:  213555061 heartbeat IPC: 0.52941 cumulative IPC: 0.50881 (Simulation time: 0 hr 6 min 24 sec) 
Heartbeat CPU  0 instructions:  184000000 cycles:  215431624 heartbeat IPC: 0.53289 cumulative IPC: 0.50909 (Simulation time: 0 hr 6 min 27 sec) 
Heartbeat CPU  0 instructions:  185000000 cycles:  217357779 heartbeat IPC: 0.51917 cumulative IPC: 0.50921 (Simulation time: 0 hr 6 min 30 sec) 
Heartbeat CPU  0 instructions:  186000002 cycles:  219248557 heartbeat IPC: 0.52888 cumulative IPC: 0.50943 (Simulation time: 0 hr 6 min 32 sec) 
Heartbeat CPU  0 instructions:  187000001 cycles:  221160376 heartbeat IPC: 0.52306 cumulative IPC: 0.50958 (Simulation time: 0 hr 6 min 35 sec) 
Heartbeat CPU  0 instructions:  188000000 cycles:  223072943 heartbeat IPC: 0.52286 cumulative IPC: 0.50973 (Simulation time: 0 hr 6 min 38 sec) 
Heartbeat CPU  0 instructions:  189000001 cycles:  224979394 heartbeat IPC: 0.52454 cumulative IPC: 0.50989 (Simulation time: 0 hr 6 min 41 sec) 
Heartbeat CPU  0 instructions:  190000002 cycles:  226857190 heartbeat IPC: 0.53254 cumulative IPC: 0.51013 (Simulation time: 0 hr 6 min 43 sec) 
Heartbeat CPU  0 instructions:  191000001 cycles:  228742112 heartbeat IPC: 0.53053 cumulative IPC: 0.51034 (Simulation time: 0 hr 6 min 46 sec) 
Heartbeat CPU  0 instructions:  192000000 cycles:  230638545 heartbeat IPC: 0.52731 cumulative IPC: 0.51052 (Simulation time: 0 hr 6 min 49 sec) 
Heartbeat CPU  0 instructions:  193000003 cycles:  232492463 heartbeat IPC: 0.53940 cumulative IPC: 0.51082 (Simulation time: 0 hr 6 min 51 sec) 
Heartbeat CPU  0 instructions:  194000002 cycles:  234108877 heartbeat IPC: 0.61865 cumulative IPC: 0.51177 (Simulation time: 0 hr 6 min 54 sec) 
Heartbeat CPU  0 instructions:  195000001 cycles:  235639146 heartbeat IPC: 0.65348 cumulative IPC: 0.51294 (Simulation time: 0 hr 6 min 56 sec) 
Heartbeat CPU  0 instructions:  196000000 cycles:  237112223 heartbeat IPC: 0.67885 cumulative IPC: 0.51425 (Simulation time: 0 hr 6 min 58 sec) 
Heartbeat CPU  0 instructions:  197000003 cycles:  238564292 heartbeat IPC: 0.68867 cumulative IPC: 0.51559 (Simulation time: 0 hr 7 min 1 sec) 
Heartbeat CPU  0 instructions:  198000000 cycles:  239955989 heartbeat IPC: 0.71855 cumulative IPC: 0.51708 (Simulation time: 0 hr 7 min 3 sec) 
Heartbeat CPU  0 instructions:  199000000 cycles:  241362869 heartbeat IPC: 0.71079 cumulative IPC: 0.51851 (Simulation time: 0 hr 7 min 5 sec) 
Heartbeat CPU  0 instructions:  200000000 cycles:  242800032 heartbeat IPC: 0.69582 cumulative IPC: 0.51983 (Simulation time: 0 hr 7 min 7 sec) 
Heartbeat CPU  0 instructions:  201000002 cycles:  244163567 heartbeat IPC: 0.73339 cumulative IPC: 0.52134 (Simulation time: 0 hr 7 min 10 sec) 
Heartbeat CPU  0 instructions:  202000000 cycles:  245506513 heartbeat IPC: 0.74463 cumulative IPC: 0.52287 (Simulation time: 0 hr 7 min 12 sec) 
Heartbeat CPU  0 instructions:  203000001 cycles:  246765528 heartbeat IPC: 0.79427 cumulative IPC: 0.52461 (Simulation time: 0 hr 7 min 14 sec) 
Heartbeat CPU  0 instructions:  204000000 cycles:  248118546 heartbeat IPC: 0.73909 cumulative IPC: 0.52608 (Simulation time: 0 hr 7 min 16 sec) 
Heartbeat CPU  0 instructions:  205000002 cycles:  249468915 heartbeat IPC: 0.74054 cumulative IPC: 0.52754 (Simulation time: 0 hr 7 min 19 sec) 
Heartbeat CPU  0 instructions:  206000003 cycles:  250769990 heartbeat IPC: 0.76860 cumulative IPC: 0.52910 (Simulation time: 0 hr 7 min 21 sec) 
Heartbeat CPU  0 instructions:  207000001 cycles:  252033829 heartbeat IPC: 0.79124 cumulative IPC: 0.53075 (Simulation time: 0 hr 7 min 23 sec) 
Heartbeat CPU  0 instructions:  208000000 cycles:  253318849 heartbeat IPC: 0.77820 cumulative IPC: 0.53231 (Simulation time: 0 hr 7 min 25 sec) 
Heartbeat CPU  0 instructions:  209000001 cycles:  254654659 heartbeat IPC: 0.74861 cumulative IPC: 0.53373 (Simulation time: 0 hr 7 min 27 sec) 
Heartbeat CPU  0 instructions:  210000003 cycles:  255994525 heartbeat IPC: 0.74634 cumulative IPC: 0.53511 (Simulation time: 0 hr 7 min 30 sec) 
Heartbeat CPU  0 instructions:  211000002 cycles:  257274605 heartbeat IPC: 0.78120 cumulative IPC: 0.53664 (Simulation time: 0 hr 7 min 32 sec) 
Heartbeat CPU  0 instructions:  212000000 cycles:  258512900 heartbeat IPC: 0.80756 cumulative IPC: 0.53825 (Simulation time: 0 hr 7 min 34 sec) 
Heartbeat CPU  0 instructions:  213000003 cycles:  259837524 heartbeat IPC: 0.75493 cumulative IPC: 0.53962 (Simulation time: 0 hr 7 min 36 sec) 
Heartbeat CPU  0 instructions:  214000000 cycles:  261180524 heartbeat IPC: 0.74460 cumulative IPC: 0.54093 (Simulation time: 0 hr 7 min 38 sec) 
Heartbeat CPU  0 instructions:  215000002 cycles:  262525591 heartbeat IPC: 0.74346 cumulative IPC: 0.54221 (Simulation time: 0 hr 7 min 41 sec) 
Heartbeat CPU  0 instructions:  216000000 cycles:  263794056 heartbeat IPC: 0.78835 cumulative IPC: 0.54367 (Simulation time: 0 hr 7 min 43 sec) 
Heartbeat CPU  0 instructions:  217000002 cycles:  265061117 heartbeat IPC: 0.78923 cumulative IPC: 0.54512 (Simulation time: 0 hr 7 min 45 sec) 
Heartbeat CPU  0 instructions:  218000000 cycles:  266408607 heartbeat IPC: 0.74212 cumulative IPC: 0.54635 (Simulation time: 0 hr 7 min 47 sec) 
Heartbeat CPU  0 instructions:  219000003 cycles:  267742359 heartbeat IPC: 0.74977 cumulative IPC: 0.54760 (Simulation time: 0 hr 7 min 49 sec) 
Heartbeat CPU  0 instructions:  220000000 cycles:  269081668 heartbeat IPC: 0.74665 cumulative IPC: 0.54882 (Simulation time: 0 hr 7 min 52 sec) 
Heartbeat CPU  0 instructions:  221000002 cycles:  270343327 heartbeat IPC: 0.79261 cumulative IPC: 0.55022 (Simulation time: 0 hr 7 min 54 sec) 
Heartbeat CPU  0 instructions:  222000001 cycles:  271671359 heartbeat IPC: 0.75299 cumulative IPC: 0.55144 (Simulation time: 0 hr 7 min 56 sec) 
Heartbeat CPU  0 instructions:  223000000 cycles:  273020637 heartbeat IPC: 0.74114 cumulative IPC: 0.55259 (Simulation time: 0 hr 7 min 58 sec) 
Heartbeat CPU  0 instructions:  224000000 cycles:  274361159 heartbeat IPC: 0.74598 cumulative IPC: 0.55374 (Simulation time: 0 hr 8 min 0 sec) 
Heartbeat CPU  0 instructions:  225000001 cycles:  275706931 heartbeat IPC: 0.74307 cumulative IPC: 0.55487 (Simulation time: 0 hr 8 min 3 sec) 
Heartbeat CPU  0 instructions:  226000003 cycles:  276984322 heartbeat IPC: 0.78285 cumulative IPC: 0.55616 (Simulation time: 0 hr 8 min 5 sec) 
Heartbeat CPU  0 instructions:  227000001 cycles:  278330353 heartbeat IPC: 0.74292 cumulative IPC: 0.55726 (Simulation time: 0 hr 8 min 7 sec) 
Heartbeat CPU  0 instructions:  228000000 cycles:  279676710 heartbeat IPC: 0.74274 cumulative IPC: 0.55835 (Simulation time: 0 hr 8 min 9 sec) 
Heartbeat CPU  0 instructions:  229000002 cycles:  280995675 heartbeat IPC: 0.75817 cumulative IPC: 0.55950 (Simulation time: 0 hr 8 min 11 sec) 
Heartbeat CPU  0 instructions:  230000002 cycles:  282276934 heartbeat IPC: 0.78048 cumulative IPC: 0.56072 (Simulation time: 0 hr 8 min 14 sec) 
Heartbeat CPU  0 instructions:  231000001 cycles:  283592064 heartbeat IPC: 0.76038 cumulative IPC: 0.56184 (Simulation time: 0 hr 8 min 16 sec) 
Heartbeat CPU  0 instructions:  232000000 cycles:  284913079 heartbeat IPC: 0.75699 cumulative IPC: 0.56294 (Simulation time: 0 hr 8 min 18 sec) 
Heartbeat CPU  0 instructions:  233000000 cycles:  286243377 heartbeat IPC: 0.75171 cumulative IPC: 0.56401 (Simulation time: 0 hr 8 min 20 sec) 
Heartbeat CPU  0 instructions:  234000003 cycles:  287544280 heartbeat IPC: 0.76870 cumulative IPC: 0.56513 (Simulation time: 0 hr 8 min 23 sec) 
Heartbeat CPU  0 instructions:  235000002 cycles:  288810841 heartbeat IPC: 0.78954 cumulative IPC: 0.56632 (Simulation time: 0 hr 8 min 25 sec) 
Heartbeat CPU  0 instructions:  236000000 cycles:  290173349 heartbeat IPC: 0.73394 cumulative IPC: 0.56728 (Simulation time: 0 hr 8 min 27 sec) 
Heartbeat CPU  0 instructions:  237000000 cycles:  291506958 heartbeat IPC: 0.74984 cumulative IPC: 0.56829 (Simulation time: 0 hr 8 min 29 sec) 
Heartbeat CPU  0 instructions:  238000001 cycles:  292825114 heartbeat IPC: 0.75864 cumulative IPC: 0.56932 (Simulation time: 0 hr 8 min 31 sec) 
Heartbeat CPU  0 instructions:  239000003 cycles:  294104435 heartbeat IPC: 0.78167 cumulative IPC: 0.57044 (Simulation time: 0 hr 8 min 34 sec) 
Heartbeat CPU  0 instructions:  240000000 cycles:  295427856 heartbeat IPC: 0.75562 cumulative IPC: 0.57144 (Simulation time: 0 hr 8 min 36 sec) 
Heartbeat CPU  0 instructions:  241000000 cycles:  296777335 heartbeat IPC: 0.74103 cumulative IPC: 0.57236 (Simulation time: 0 hr 8 min 38 sec) 
Heartbeat CPU  0 instructions:  242000000 cycles:  298097693 heartbeat IPC: 0.75737 cumulative IPC: 0.57335 (Simulation time: 0 hr 8 min 40 sec) 
Heartbeat CPU  0 instructions:  243000003 cycles:  299400889 heartbeat IPC: 0.76735 cumulative IPC: 0.57437 (Simulation time: 0 hr 8 min 42 sec) 
Heartbeat CPU  0 instructions:  244000000 cycles:  300649251 heartbeat IPC: 0.80105 cumulative IPC: 0.57550 (Simulation time: 0 hr 8 min 45 sec) 
Heartbeat CPU  0 instructions:  245000000 cycles:  301985909 heartbeat IPC: 0.74813 cumulative IPC: 0.57641 (Simulation time: 0 hr 8 min 47 sec) 
Heartbeat CPU  0 instructions:  246000002 cycles:  303338103 heartbeat IPC: 0.73954 cumulative IPC: 0.57729 (Simulation time: 0 hr 8 min 49 sec) 
Heartbeat CPU  0 instructions:  247000000 cycles:  304665095 heartbeat IPC: 0.75358 cumulative IPC: 0.57821 (Simulation time: 0 hr 8 min 51 sec) 
Heartbeat CPU  0 instructions:  248000000 cycles:  305943697 heartbeat IPC: 0.78210 cumulative IPC: 0.57923 (Simulation time: 0 hr 8 min 53 sec) 
Heartbeat CPU  0 instructions:  249000000 cycles:  307236454 heartbeat IPC: 0.77354 cumulative IPC: 0.58021 (Simulation time: 0 hr 8 min 56 sec) 
Heartbeat CPU  0 instructions:  250000001 cycles:  308580171 heartbeat IPC: 0.74421 cumulative IPC: 0.58106 (Simulation time: 0 hr 8 min 58 sec) 
Heartbeat CPU  0 instructions:  251000003 cycles:  309927235 heartbeat IPC: 0.74236 cumulative IPC: 0.58190 (Simulation time: 0 hr 9 min 0 sec) 
Heartbeat CPU  0 instructions:  252000000 cycles:  311239413 heartbeat IPC: 0.76209 cumulative IPC: 0.58280 (Simulation time: 0 hr 9 min 2 sec) 
Heartbeat CPU  0 instructions:  253000000 cycles:  312472149 heartbeat IPC: 0.81120 cumulative IPC: 0.58388 (Simulation time: 0 hr 9 min 4 sec) 
Heartbeat CPU  0 instructions:  254000000 cycles:  313796935 heartbeat IPC: 0.75484 cumulative IPC: 0.58474 (Simulation time: 0 hr 9 min 7 sec) 
Heartbeat CPU  0 instructions:  255000003 cycles:  315120848 heartbeat IPC: 0.75534 cumulative IPC: 0.58559 (Simulation time: 0 hr 9 min 9 sec) 
Heartbeat CPU  0 instructions:  256000000 cycles:  316452959 heartbeat IPC: 0.75069 cumulative IPC: 0.58642 (Simulation time: 0 hr 9 min 11 sec) 
Heartbeat CPU  0 instructions:  257000003 cycles:  317758733 heartbeat IPC: 0.76583 cumulative IPC: 0.58729 (Simulation time: 0 hr 9 min 13 sec) 
Heartbeat CPU  0 instructions:  258000000 cycles:  319023972 heartbeat IPC: 0.79036 cumulative IPC: 0.58825 (Simulation time: 0 hr 9 min 15 sec) 
Heartbeat CPU  0 instructions:  259000003 cycles:  320360478 heartbeat IPC: 0.74822 cumulative IPC: 0.58904 (Simulation time: 0 hr 9 min 18 sec) 
Heartbeat CPU  0 instructions:  260000000 cycles:  321681493 heartbeat IPC: 0.75699 cumulative IPC: 0.58986 (Simulation time: 0 hr 9 min 20 sec) 
Heartbeat CPU  0 instructions:  261000001 cycles:  323005089 heartbeat IPC: 0.75552 cumulative IPC: 0.59066 (Simulation time: 0 hr 9 min 22 sec) 
Heartbeat CPU  0 instructions:  262000000 cycles:  324284165 heartbeat IPC: 0.78181 cumulative IPC: 0.59156 (Simulation time: 0 hr 9 min 24 sec) 
Heartbeat CPU  0 instructions:  263000000 cycles:  325589106 heartbeat IPC: 0.76632 cumulative IPC: 0.59239 (Simulation time: 0 hr 9 min 26 sec) 
Heartbeat CPU  0 instructions:  264000000 cycles:  326918687 heartbeat IPC: 0.75212 cumulative IPC: 0.59315 (Simulation time: 0 hr 9 min 29 sec) 
Heartbeat CPU  0 instructions:  265000000 cycles:  328234286 heartbeat IPC: 0.76011 cumulative IPC: 0.59395 (Simulation time: 0 hr 9 min 31 sec) 
Heartbeat CPU  0 instructions:  266000001 cycles:  329550292 heartbeat IPC: 0.75988 cumulative IPC: 0.59473 (Simulation time: 0 hr 9 min 33 sec) 
Heartbeat CPU  0 instructions:  267000000 cycles:  330836290 heartbeat IPC: 0.77761 cumulative IPC: 0.59557 (Simulation time: 0 hr 9 min 35 sec) 
Heartbeat CPU  0 instructions:  268000000 cycles:  332165105 heartbeat IPC: 0.75255 cumulative IPC: 0.59631 (Simulation time: 0 hr 9 min 37 sec) 
Heartbeat CPU  0 instructions:  269000003 cycles:  333494754 heartbeat IPC: 0.75208 cumulative IPC: 0.59704 (Simulation time: 0 hr 9 min 40 sec) 
Heartbeat CPU  0 instructions:  270000002 cycles:  334806465 heartbeat IPC: 0.76236 cumulative IPC: 0.59780 (Simulation time: 0 hr 9 min 42 sec) 
Heartbeat CPU  0 instructions:  271000000 cycles:  336065437 heartbeat IPC: 0.79430 cumulative IPC: 0.59867 (Simulation time: 0 hr 9 min 44 sec) 
Heartbeat CPU  0 instructions:  272000000 cycles:  337400925 heartbeat IPC: 0.74879 cumulative IPC: 0.59937 (Simulation time: 0 hr 9 min 46 sec) 
Heartbeat CPU  0 instructions:  273000002 cycles:  338738866 heartbeat IPC: 0.74742 cumulative IPC: 0.60005 (Simulation time: 0 hr 9 min 49 sec) 
Heartbeat CPU  0 instructions:  274000002 cycles:  340064645 heartbeat IPC: 0.75427 cumulative IPC: 0.60076 (Simulation time: 0 hr 9 min 51 sec) 
Heartbeat CPU  0 instructions:  275000001 cycles:  341383598 heartbeat IPC: 0.75818 cumulative IPC: 0.60147 (Simulation time: 0 hr 9 min 53 sec) 
Heartbeat CPU  0 instructions:  276000000 cycles:  342652180 heartbeat IPC: 0.78828 cumulative IPC: 0.60228 (Simulation time: 0 hr 9 min 55 sec) 
Heartbeat CPU  0 instructions:  277000003 cycles:  344018572 heartbeat IPC: 0.73186 cumulative IPC: 0.60289 (Simulation time: 0 hr 9 min 57 sec) 
Heartbeat CPU  0 instructions:  278000003 cycles:  345360931 heartbeat IPC: 0.74496 cumulative IPC: 0.60353 (Simulation time: 0 hr 10 min 0 sec) 
Heartbeat CPU  0 instructions:  279000003 cycles:  346676079 heartbeat IPC: 0.76037 cumulative IPC: 0.60423 (Simulation time: 0 hr 10 min 2 sec) 
Heartbeat CPU  0 instructions:  280000000 cycles:  347935136 heartbeat IPC: 0.79424 cumulative IPC: 0.60503 (Simulation time: 0 hr 10 min 4 sec) 
Heartbeat CPU  0 instructions:  281000002 cycles:  349240126 heartbeat IPC: 0.76629 cumulative IPC: 0.60574 (Simulation time: 0 hr 10 min 6 sec) 
Heartbeat CPU  0 instructions:  282000001 cycles:  350583931 heartbeat IPC: 0.74415 cumulative IPC: 0.60636 (Simulation time: 0 hr 10 min 9 sec) 
Heartbeat CPU  0 instructions:  283000003 cycles:  351906694 heartbeat IPC: 0.75599 cumulative IPC: 0.60701 (Simulation time: 0 hr 10 min 11 sec) 
Heartbeat CPU  0 instructions:  284000000 cycles:  353189707 heartbeat IPC: 0.77941 cumulative IPC: 0.60774 (Simulation time: 0 hr 10 min 13 sec) 
Heartbeat CPU  0 instructions:  285000002 cycles:  354430163 heartbeat IPC: 0.80616 cumulative IPC: 0.60855 (Simulation time: 0 hr 10 min 15 sec) 
Heartbeat CPU  0 instructions:  286000001 cycles:  355755226 heartbeat IPC: 0.75468 cumulative IPC: 0.60919 (Simulation time: 0 hr 10 min 17 sec) 
Heartbeat CPU  0 instructions:  287000001 cycles:  357092468 heartbeat IPC: 0.74781 cumulative IPC: 0.60979 (Simulation time: 0 hr 10 min 20 sec) 
Heartbeat CPU  0 instructions:  288000000 cycles:  358432505 heartbeat IPC: 0.74625 cumulative IPC: 0.61039 (Simulation time: 0 hr 10 min 22 sec) 
Heartbeat CPU  0 instructions:  289000000 cycles:  359693206 heartbeat IPC: 0.79321 cumulative IPC: 0.61113 (Simulation time: 0 hr 10 min 24 sec) 
Heartbeat CPU  0 instructions:  290000000 cycles:  360976206 heartbeat IPC: 0.77942 cumulative IPC: 0.61183 (Simulation time: 0 hr 10 min 26 sec) 
Heartbeat CPU  0 instructions:  291000002 cycles:  362313264 heartbeat IPC: 0.74791 cumulative IPC: 0.61241 (Simulation time: 0 hr 10 min 28 sec) 
Heartbeat CPU  0 instructions:  292000000 cycles:  363649791 heartbeat IPC: 0.74821 cumulative IPC: 0.61299 (Simulation time: 0 hr 10 min 31 sec) 
Heartbeat CPU  0 instructions:  293000001 cycles:  364976519 heartbeat IPC: 0.75373 cumulative IPC: 0.61358 (Simulation time: 0 hr 10 min 33 sec) 
Heartbeat CPU  0 instructions:  294000002 cycles:  366218276 heartbeat IPC: 0.80531 cumulative IPC: 0.61434 (Simulation time: 0 hr 10 min 35 sec) 
Heartbeat CPU  0 instructions:  295000003 cycles:  367544766 heartbeat IPC: 0.75387 cumulative IPC: 0.61492 (Simulation time: 0 hr 10 min 37 sec) 
Heartbeat CPU  0 instructions:  296000000 cycles:  368873653 heartbeat IPC: 0.75251 cumulative IPC: 0.61550 (Simulation time: 0 hr 10 min 40 sec) 
Heartbeat CPU  0 instructions:  297000003 cycles:  370206461 heartbeat IPC: 0.75030 cumulative IPC: 0.61606 (Simulation time: 0 hr 10 min 42 sec) 
Heartbeat CPU  0 instructions:  298000002 cycles:  371509925 heartbeat IPC: 0.76719 cumulative IPC: 0.61667 (Simulation time: 0 hr 10 min 44 sec) 
Heartbeat CPU  0 instructions:  299000003 cycles:  372787372 heartbeat IPC: 0.78281 cumulative IPC: 0.61733 (Simulation time: 0 hr 10 min 46 sec) 
Heartbeat CPU  0 instructions:  300000000 cycles:  374118816 heartbeat IPC: 0.75106 cumulative IPC: 0.61788 (Simulation time: 0 hr 10 min 48 sec) 
Heartbeat CPU  0 instructions:  301000000 cycles:  375439692 heartbeat IPC: 0.75707 cumulative IPC: 0.61844 (Simulation time: 0 hr 10 min 51 sec) 
Heartbeat CPU  0 instructions:  302000003 cycles:  376749900 heartbeat IPC: 0.76324 cumulative IPC: 0.61903 (Simulation time: 0 hr 10 min 53 sec) 
Heartbeat CPU  0 instructions:  303000002 cycles:  378021618 heartbeat IPC: 0.78634 cumulative IPC: 0.61968 (Simulation time: 0 hr 10 min 55 sec) 
Heartbeat CPU  0 instructions:  304000000 cycles:  379342329 heartbeat IPC: 0.75717 cumulative IPC: 0.62023 (Simulation time: 0 hr 10 min 57 sec) 
Heartbeat CPU  0 instructions:  305000001 cycles:  380670315 heartbeat IPC: 0.75302 cumulative IPC: 0.62076 (Simulation time: 0 hr 10 min 59 sec) 
Heartbeat CPU  0 instructions:  306000003 cycles:  381968779 heartbeat IPC: 0.77014 cumulative IPC: 0.62135 (Simulation time: 0 hr 11 min 2 sec) 
Heartbeat CPU  0 instructions:  307000000 cycles:  383265165 heartbeat IPC: 0.77137 cumulative IPC: 0.62193 (Simulation time: 0 hr 11 min 4 sec) 
Heartbeat CPU  0 instructions:  308000000 cycles:  384546333 heartbeat IPC: 0.78054 cumulative IPC: 0.62254 (Simulation time: 0 hr 11 min 6 sec) 
Heartbeat CPU  0 instructions:  309000000 cycles:  385881064 heartbeat IPC: 0.74921 cumulative IPC: 0.62304 (Simulation time: 0 hr 11 min 8 sec) 
Heartbeat CPU  0 instructions:  310000003 cycles:  387209201 heartbeat IPC: 0.75294 cumulative IPC: 0.62356 (Simulation time: 0 hr 11 min 10 sec) 
Heartbeat CPU  0 instructions:  311000001 cycles:  388508863 heartbeat IPC: 0.76943 cumulative IPC: 0.62412 (Simulation time: 0 hr 11 min 13 sec) 
Heartbeat CPU  0 instructions:  312000000 cycles:  389763665 heartbeat IPC: 0.79694 cumulative IPC: 0.62476 (Simulation time: 0 hr 11 min 15 sec) 
Heartbeat CPU  0 instructions:  313000001 cycles:  391094683 heartbeat IPC: 0.75131 cumulative IPC: 0.62525 (Simulation time: 0 hr 11 min 17 sec) 
Heartbeat CPU  0 instructions:  314000000 cycles:  392436884 heartbeat IPC: 0.74504 cumulative IPC: 0.62572 (Simulation time: 0 hr 11 min 19 sec) 
Heartbeat CPU  0 instructions:  315000000 cycles:  393764328 heartbeat IPC: 0.75333 cumulative IPC: 0.62621 (Simulation time: 0 hr 11 min 21 sec) 
Heartbeat CPU  0 instructions:  316000000 cycles:  395064548 heartbeat IPC: 0.76910 cumulative IPC: 0.62675 (Simulation time: 0 hr 11 min 24 sec) 
Heartbeat CPU  0 instructions:  317000000 cycles:  396327910 heartbeat IPC: 0.79154 cumulative IPC: 0.62735 (Simulation time: 0 hr 11 min 26 sec) 
Heartbeat CPU  0 instructions:  318000002 cycles:  397675049 heartbeat IPC: 0.74232 cumulative IPC: 0.62780 (Simulation time: 0 hr 11 min 28 sec) 
Heartbeat CPU  0 instructions:  319000001 cycles:  399020465 heartbeat IPC: 0.74326 cumulative IPC: 0.62825 (Simulation time: 0 hr 11 min 30 sec) 
Heartbeat CPU  0 instructions:  320000000 cycles:  400358570 heartbeat IPC: 0.74732 cumulative IPC: 0.62870 (Simulation time: 0 hr 11 min 32 sec) 
Heartbeat CPU  0 instructions:  321000003 cycles:  401617719 heartbeat IPC: 0.79419 cumulative IPC: 0.62929 (Simulation time: 0 hr 11 min 35 sec) 
Heartbeat CPU  0 instructions:  322000003 cycles:  402927698 heartbeat IPC: 0.76337 cumulative IPC: 0.62979 (Simulation time: 0 hr 11 min 37 sec) 
Heartbeat CPU  0 instructions:  323000003 cycles:  404267450 heartbeat IPC: 0.74641 cumulative IPC: 0.63023 (Simulation time: 0 hr 11 min 39 sec) 
Heartbeat CPU  0 instructions:  324000000 cycles:  405597678 heartbeat IPC: 0.75175 cumulative IPC: 0.63069 (Simulation time: 0 hr 11 min 41 sec) 
Heartbeat CPU  0 instructions:  325000000 cycles:  406914116 heartbeat IPC: 0.75963 cumulative IPC: 0.63117 (Simulation time: 0 hr 11 min 43 sec) 
Heartbeat CPU  0 instructions:  326000001 cycles:  408157887 heartbeat IPC: 0.80401 cumulative IPC: 0.63177 (Simulation time: 0 hr 11 min 46 sec) 
Heartbeat CPU  0 instructions:  327000001 cycles:  409483802 heartbeat IPC: 0.75420 cumulative IPC: 0.63222 (Simulation time: 0 hr 11 min 48 sec) 
Heartbeat CPU  0 instructions:  328000000 cycles:  410810974 heartbeat IPC: 0.75348 cumulative IPC: 0.63267 (Simulation time: 0 hr 11 min 50 sec) 
Heartbeat CPU  0 instructions:  329000000 cycles:  412138135 heartbeat IPC: 0.75349 cumulative IPC: 0.63311 (Simulation time: 0 hr 11 min 52 sec) 
Heartbeat CPU  0 instructions:  330000000 cycles:  413427295 heartbeat IPC: 0.77570 cumulative IPC: 0.63362 (Simulation time: 0 hr 11 min 55 sec) 
Heartbeat CPU  0 instructions:  331000003 cycles:  414711077 heartbeat IPC: 0.77895 cumulative IPC: 0.63413 (Simulation time: 0 hr 11 min 57 sec) 
Heartbeat CPU  0 instructions:  332000000 cycles:  416034785 heartbeat IPC: 0.75545 cumulative IPC: 0.63457 (Simulation time: 0 hr 11 min 59 sec) 
Heartbeat CPU  0 instructions:  333000002 cycles:  417366428 heartbeat IPC: 0.75095 cumulative IPC: 0.63499 (Simulation time: 0 hr 12 min 1 sec) 
Heartbeat CPU  0 instructions:  334000003 cycles:  418687492 heartbeat IPC: 0.75697 cumulative IPC: 0.63543 (Simulation time: 0 hr 12 min 3 sec) 
Heartbeat CPU  0 instructions:  335000000 cycles:  419947345 heartbeat IPC: 0.79374 cumulative IPC: 0.63597 (Simulation time: 0 hr 12 min 6 sec) 
Heartbeat CPU  0 instructions:  336000000 cycles:  421269933 heartbeat IPC: 0.75609 cumulative IPC: 0.63639 (Simulation time: 0 hr 12 min 8 sec) 
Heartbeat CPU  0 instructions:  337000001 cycles:  422573129 heartbeat IPC: 0.76735 cumulative IPC: 0.63685 (Simulation time: 0 hr 12 min 10 sec) 
Heartbeat CPU  0 instructions:  338000003 cycles:  423892730 heartbeat IPC: 0.75781 cumulative IPC: 0.63728 (Simulation time: 0 hr 12 min 12 sec) 
Heartbeat CPU  0 instructions:  339000000 cycles:  425171504 heartbeat IPC: 0.78200 cumulative IPC: 0.63777 (Simulation time: 0 hr 12 min 14 sec) 
Heartbeat CPU  0 instructions:  340000000 cycles:  426457379 heartbeat IPC: 0.77768 cumulative IPC: 0.63825 (Simulation time: 0 hr 12 min 17 sec) 
Heartbeat CPU  0 instructions:  341000002 cycles:  427779220 heartbeat IPC: 0.75652 cumulative IPC: 0.63867 (Simulation time: 0 hr 12 min 19 sec) 
Heartbeat CPU  0 instructions:  342000002 cycles:  429087264 heartbeat IPC: 0.76450 cumulative IPC: 0.63910 (Simulation time: 0 hr 12 min 21 sec) 
Heartbeat CPU  0 instructions:  343000001 cycles:  430393797 heartbeat IPC: 0.76538 cumulative IPC: 0.63954 (Simulation time: 0 hr 12 min 23 sec) 
Heartbeat CPU  0 instructions:  344000000 cycles:  431636972 heartbeat IPC: 0.80439 cumulative IPC: 0.64007 (Simulation time: 0 hr 12 min 25 sec) 
Heartbeat CPU  0 instructions:  345000003 cycles:  432971715 heartbeat IPC: 0.74921 cumulative IPC: 0.64045 (Simulation time: 0 hr 12 min 28 sec) 
Heartbeat CPU  0 instructions:  346000001 cycles:  434251849 heartbeat IPC: 0.78117 cumulative IPC: 0.64092 (Simulation time: 0 hr 12 min 30 sec) 
Heartbeat CPU  0 instructions:  347000003 cycles:  435999376 heartbeat IPC: 0.57224 cumulative IPC: 0.64061 (Simulation time: 0 hr 12 min 32 sec) 
Heartbeat CPU  0 instructions:  348000000 cycles:  438701925 heartbeat IPC: 0.37002 cumulative IPC: 0.63873 (Simulation time: 0 hr 12 min 35 sec) 
Heartbeat CPU  0 instructions:  349000002 cycles:  441393128 heartbeat IPC: 0.37158 cumulative IPC: 0.63689 (Simulation time: 0 hr 12 min 37 sec) 
Heartbeat CPU  0 instructions:  350000000 cycles:  444084276 heartbeat IPC: 0.37159 cumulative IPC: 0.63508 (Simulation time: 0 hr 12 min 40 sec) 
Heartbeat CPU  0 instructions:  351000002 cycles:  446756146 heartbeat IPC: 0.37427 cumulative IPC: 0.63332 (Simulation time: 0 hr 12 min 43 sec) 
Heartbeat CPU  0 instructions:  352000000 cycles:  449432596 heartbeat IPC: 0.37363 cumulative IPC: 0.63158 (Simulation time: 0 hr 12 min 45 sec) 
Heartbeat CPU  0 instructions:  353000000 cycles:  452119557 heartbeat IPC: 0.37217 cumulative IPC: 0.62984 (Simulation time: 0 hr 12 min 48 sec) 
Heartbeat CPU  0 instructions:  354000000 cycles:  454819397 heartbeat IPC: 0.37039 cumulative IPC: 0.62811 (Simulation time: 0 hr 12 min 50 sec) 
Heartbeat CPU  0 instructions:  355000003 cycles:  457508496 heartbeat IPC: 0.37187 cumulative IPC: 0.62642 (Simulation time: 0 hr 12 min 53 sec) 
Heartbeat CPU  0 instructions:  356000000 cycles:  460213631 heartbeat IPC: 0.36967 cumulative IPC: 0.62472 (Simulation time: 0 hr 12 min 56 sec) 
Heartbeat CPU  0 instructions:  357000000 cycles:  462915863 heartbeat IPC: 0.37006 cumulative IPC: 0.62305 (Simulation time: 0 hr 12 min 58 sec) 
Heartbeat CPU  0 instructions:  358000000 cycles:  465615439 heartbeat IPC: 0.37043 cumulative IPC: 0.62141 (Simulation time: 0 hr 13 min 1 sec) 
Heartbeat CPU  0 instructions:  359000000 cycles:  468325892 heartbeat IPC: 0.36894 cumulative IPC: 0.61977 (Simulation time: 0 hr 13 min 4 sec) 
Heartbeat CPU  0 instructions:  360000000 cycles:  471026114 heartbeat IPC: 0.37034 cumulative IPC: 0.61817 (Simulation time: 0 hr 13 min 6 sec) 
Heartbeat CPU  0 instructions:  361000000 cycles:  473720274 heartbeat IPC: 0.37117 cumulative IPC: 0.61660 (Simulation time: 0 hr 13 min 9 sec) 
Heartbeat CPU  0 instructions:  362000001 cycles:  476430222 heartbeat IPC: 0.36901 cumulative IPC: 0.61502 (Simulation time: 0 hr 13 min 12 sec) 
Heartbeat CPU  0 instructions:  363000003 cycles:  479140662 heartbeat IPC: 0.36894 cumulative IPC: 0.61347 (Simulation time: 0 hr 13 min 15 sec) 
Heartbeat CPU  0 instructions:  364000000 cycles:  481848218 heartbeat IPC: 0.36934 cumulative IPC: 0.61194 (Simulation time: 0 hr 13 min 17 sec) 
Heartbeat CPU  0 instructions:  365000000 cycles:  484560990 heartbeat IPC: 0.36863 cumulative IPC: 0.61042 (Simulation time: 0 hr 13 min 20 sec) 
Heartbeat CPU  0 instructions:  366000000 cycles:  487278727 heartbeat IPC: 0.36795 cumulative IPC: 0.60891 (Simulation time: 0 hr 13 min 23 sec) 
Heartbeat CPU  0 instructions:  367000001 cycles:  489976891 heartbeat IPC: 0.37062 cumulative IPC: 0.60745 (Simulation time: 0 hr 13 min 25 sec) 
Heartbeat CPU  0 instructions:  368000000 cycles:  492689648 heartbeat IPC: 0.36863 cumulative IPC: 0.60598 (Simulation time: 0 hr 13 min 28 sec) 
Heartbeat CPU  0 instructions:  369000000 cycles:  495404767 heartbeat IPC: 0.36831 cumulative IPC: 0.60453 (Simulation time: 0 hr 13 min 31 sec) 
Heartbeat CPU  0 instructions:  370000002 cycles:  498112482 heartbeat IPC: 0.36932 cumulative IPC: 0.60311 (Simulation time: 0 hr 13 min 33 sec) 
Heartbeat CPU  0 instructions:  371000002 cycles:  500829611 heartbeat IPC: 0.36804 cumulative IPC: 0.60169 (Simulation time: 0 hr 13 min 36 sec) 
Heartbeat CPU  0 instructions:  372000000 cycles:  503559222 heartbeat IPC: 0.36635 cumulative IPC: 0.60027 (Simulation time: 0 hr 13 min 39 sec) 
Heartbeat CPU  0 instructions:  373000002 cycles:  506263260 heartbeat IPC: 0.36982 cumulative IPC: 0.59890 (Simulation time: 0 hr 13 min 42 sec) 
Heartbeat CPU  0 instructions:  374000003 cycles:  508966742 heartbeat IPC: 0.36989 cumulative IPC: 0.59755 (Simulation time: 0 hr 13 min 44 sec) 
Heartbeat CPU  0 instructions:  375000003 cycles:  511685765 heartbeat IPC: 0.36778 cumulative IPC: 0.59620 (Simulation time: 0 hr 13 min 47 sec) 
Heartbeat CPU  0 instructions:  376000000 cycles:  514377749 heartbeat IPC: 0.37147 cumulative IPC: 0.59490 (Simulation time: 0 hr 13 min 50 sec) 
Heartbeat CPU  0 instructions:  377000003 cycles:  517093597 heartbeat IPC: 0.36821 cumulative IPC: 0.59358 (Simulation time: 0 hr 13 min 52 sec) 
Heartbeat CPU  0 instructions:  378000003 cycles:  519814861 heartbeat IPC: 0.36748 cumulative IPC: 0.59227 (Simulation time: 0 hr 13 min 55 sec) 
Heartbeat CPU  0 instructions:  379000003 cycles:  522514995 heartbeat IPC: 0.37035 cumulative IPC: 0.59100 (Simulation time: 0 hr 13 min 58 sec) 
Heartbeat CPU  0 instructions:  380000000 cycles:  525224166 heartbeat IPC: 0.36912 cumulative IPC: 0.58973 (Simulation time: 0 hr 14 min 0 sec) 
Heartbeat CPU  0 instructions:  381000002 cycles:  527954180 heartbeat IPC: 0.36630 cumulative IPC: 0.58845 (Simulation time: 0 hr 14 min 3 sec) 
Heartbeat CPU  0 instructions:  382000001 cycles:  530664795 heartbeat IPC: 0.36892 cumulative IPC: 0.58721 (Simulation time: 0 hr 14 min 6 sec) 
Heartbeat CPU  0 instructions:  383000000 cycles:  533367132 heartbeat IPC: 0.37005 cumulative IPC: 0.58600 (Simulation time: 0 hr 14 min 8 sec) 
Heartbeat CPU  0 instructions:  384000000 cycles:  536091842 heartbeat IPC: 0.36701 cumulative IPC: 0.58477 (Simulation time: 0 hr 14 min 11 sec) 
Heartbeat CPU  0 instructions:  385000000 cycles:  538809214 heartbeat IPC: 0.36800 cumulative IPC: 0.58356 (Simulation time: 0 hr 14 min 14 sec) 
Heartbeat CPU  0 instructions:  386000001 cycles:  541521636 heartbeat IPC: 0.36867 cumulative IPC: 0.58238 (Simulation time: 0 hr 14 min 17 sec) 
Heartbeat CPU  0 instructions:  387000003 cycles:  544234708 heartbeat IPC: 0.36859 cumulative IPC: 0.58120 (Simulation time: 0 hr 14 min 19 sec) 
Heartbeat CPU  0 instructions:  388000000 cycles:  546946226 heartbeat IPC: 0.36880 cumulative IPC: 0.58004 (Simulation time: 0 hr 14 min 22 sec) 
Heartbeat CPU  0 instructions:  389000001 cycles:  549650989 heartbeat IPC: 0.36972 cumulative IPC: 0.57890 (Simulation time: 0 hr 14 min 25 sec) 
Heartbeat CPU  0 instructions:  390000000 cycles:  552358201 heartbeat IPC: 0.36938 cumulative IPC: 0.57777 (Simulation time: 0 hr 14 min 27 sec) 
Heartbeat CPU  0 instructions:  391000000 cycles:  555064346 heartbeat IPC: 0.36953 cumulative IPC: 0.57666 (Simulation time: 0 hr 14 min 30 sec) 
Heartbeat CPU  0 instructions:  392000000 cycles:  557403063 heartbeat IPC: 0.42758 cumulative IPC: 0.57597 (Simulation time: 0 hr 14 min 33 sec) 
Heartbeat CPU  0 instructions:  393000002 cycles:  559682465 heartbeat IPC: 0.43871 cumulative IPC: 0.57535 (Simulation time: 0 hr 14 min 36 sec) 
Heartbeat CPU  0 instructions:  394000001 cycles:  563932160 heartbeat IPC: 0.23531 cumulative IPC: 0.57254 (Simulation time: 0 hr 14 min 39 sec) 
Heartbeat CPU  0 instructions:  395000000 cycles:  566586542 heartbeat IPC: 0.37674 cumulative IPC: 0.57153 (Simulation time: 0 hr 14 min 42 sec) 
Heartbeat CPU  0 instructions:  396000000 cycles:  567882225 heartbeat IPC: 0.77179 cumulative IPC: 0.57203 (Simulation time: 0 hr 14 min 45 sec) 
Heartbeat CPU  0 instructions:  397000000 cycles:  569190714 heartbeat IPC: 0.76424 cumulative IPC: 0.57252 (Simulation time: 0 hr 14 min 47 sec) 
Heartbeat CPU  0 instructions:  398000001 cycles:  570504362 heartbeat IPC: 0.76124 cumulative IPC: 0.57300 (Simulation time: 0 hr 14 min 49 sec) 
Heartbeat CPU  0 instructions:  399000002 cycles:  571839078 heartbeat IPC: 0.74922 cumulative IPC: 0.57345 (Simulation time: 0 hr 14 min 52 sec) 
Heartbeat CPU  0 instructions:  400000000 cycles:  573152933 heartbeat IPC: 0.76112 cumulative IPC: 0.57392 (Simulation time: 0 hr 14 min 54 sec) 
Heartbeat CPU  0 instructions:  401000003 cycles:  574490117 heartbeat IPC: 0.74784 cumulative IPC: 0.57436 (Simulation time: 0 hr 14 min 56 sec) 
Heartbeat CPU  0 instructions:  402000002 cycles:  575803426 heartbeat IPC: 0.76143 cumulative IPC: 0.57483 (Simulation time: 0 hr 14 min 59 sec) 
Heartbeat CPU  0 instructions:  403000002 cycles:  577085395 heartbeat IPC: 0.78005 cumulative IPC: 0.57533 (Simulation time: 0 hr 15 min 1 sec) 
Heartbeat CPU  0 instructions:  404000000 cycles:  578366266 heartbeat IPC: 0.78072 cumulative IPC: 0.57583 (Simulation time: 0 hr 15 min 3 sec) 
Heartbeat CPU  0 instructions:  405000000 cycles:  579653538 heartbeat IPC: 0.77684 cumulative IPC: 0.57632 (Simulation time: 0 hr 15 min 5 sec) 
Heartbeat CPU  0 instructions:  406000000 cycles:  580927610 heartbeat IPC: 0.78488 cumulative IPC: 0.57682 (Simulation time: 0 hr 15 min 8 sec) 
Heartbeat CPU  0 instructions:  407000000 cycles:  582195561 heartbeat IPC: 0.78867 cumulative IPC: 0.57732 (Simulation time: 0 hr 15 min 10 sec) 
Heartbeat CPU  0 instructions:  408000000 cycles:  583678897 heartbeat IPC: 0.67416 cumulative IPC: 0.57759 (Simulation time: 0 hr 15 min 12 sec) 
Heartbeat CPU  0 instructions:  409000001 cycles:  586245174 heartbeat IPC: 0.38967 cumulative IPC: 0.57669 (Simulation time: 0 hr 15 min 15 sec) 
Heartbeat CPU  0 instructions:  410000003 cycles:  588799795 heartbeat IPC: 0.39145 cumulative IPC: 0.57581 (Simulation time: 0 hr 15 min 18 sec) 
Heartbeat CPU  0 instructions:  411000002 cycles:  591298078 heartbeat IPC: 0.40027 cumulative IPC: 0.57500 (Simulation time: 0 hr 15 min 21 sec) 
Heartbeat CPU  0 instructions:  412000000 cycles:  592591528 heartbeat IPC: 0.77312 cumulative IPC: 0.57548 (Simulation time: 0 hr 15 min 23 sec) 
Heartbeat CPU  0 instructions:  413000003 cycles:  593687106 heartbeat IPC: 0.91276 cumulative IPC: 0.57616 (Simulation time: 0 hr 15 min 25 sec) 
Heartbeat CPU  0 instructions:  414000000 cycles:  594886591 heartbeat IPC: 0.83369 cumulative IPC: 0.57672 (Simulation time: 0 hr 15 min 27 sec) 
Heartbeat CPU  0 instructions:  415000002 cycles:  596096817 heartbeat IPC: 0.82629 cumulative IPC: 0.57728 (Simulation time: 0 hr 15 min 29 sec) 
Heartbeat CPU  0 instructions:  416000000 cycles:  597312694 heartbeat IPC: 0.82245 cumulative IPC: 0.57782 (Simulation time: 0 hr 15 min 31 sec) 
Heartbeat CPU  0 instructions:  417000000 cycles:  598576855 heartbeat IPC: 0.79104 cumulative IPC: 0.57831 (Simulation time: 0 hr 15 min 34 sec) 
Heartbeat CPU  0 instructions:  418000001 cycles:  599823454 heartbeat IPC: 0.80218 cumulative IPC: 0.57882 (Simulation time: 0 hr 15 min 36 sec) 
Heartbeat CPU  0 instructions:  419000003 cycles:  601088481 heartbeat IPC: 0.79050 cumulative IPC: 0.57931 (Simulation time: 0 hr 15 min 38 sec) 
Heartbeat CPU  0 instructions:  420000000 cycles:  602363118 heartbeat IPC: 0.78453 cumulative IPC: 0.57978 (Simulation time: 0 hr 15 min 40 sec) 
Heartbeat CPU  0 instructions:  421000001 cycles:  603655467 heartbeat IPC: 0.77379 cumulative IPC: 0.58023 (Simulation time: 0 hr 15 min 42 sec) 
Heartbeat CPU  0 instructions:  422000000 cycles:  604969833 heartbeat IPC: 0.76082 cumulative IPC: 0.58066 (Simulation time: 0 hr 15 min 44 sec) 
Heartbeat CPU  0 instructions:  423000002 cycles:  606252237 heartbeat IPC: 0.77979 cumulative IPC: 0.58112 (Simulation time: 0 hr 15 min 46 sec) 
Heartbeat CPU  0 instructions:  424000000 cycles:  607569653 heartbeat IPC: 0.75906 cumulative IPC: 0.58154 (Simulation time: 0 hr 15 min 49 sec) 
Heartbeat CPU  0 instructions:  425000000 cycles:  608888521 heartbeat IPC: 0.75823 cumulative IPC: 0.58196 (Simulation time: 0 hr 15 min 51 sec) 
Heartbeat CPU  0 instructions:  426000003 cycles:  610206888 heartbeat IPC: 0.75852 cumulative IPC: 0.58238 (Simulation time: 0 hr 15 min 53 sec) 
Heartbeat CPU  0 instructions:  427000003 cycles:  611525330 heartbeat IPC: 0.75847 cumulative IPC: 0.58279 (Simulation time: 0 hr 15 min 55 sec) 
Heartbeat CPU  0 instructions:  428000000 cycles:  612845281 heartbeat IPC: 0.75760 cumulative IPC: 0.58320 (Simulation time: 0 hr 15 min 57 sec) 
Heartbeat CPU  0 instructions:  429000002 cycles:  614162010 heartbeat IPC: 0.75946 cumulative IPC: 0.58361 (Simulation time: 0 hr 16 min 0 sec) 
Heartbeat CPU  0 instructions:  430000002 cycles:  615479588 heartbeat IPC: 0.75897 cumulative IPC: 0.58402 (Simulation time: 0 hr 16 min 2 sec) 
Heartbeat CPU  0 instructions:  431000003 cycles:  616797277 heartbeat IPC: 0.75891 cumulative IPC: 0.58443 (Simulation time: 0 hr 16 min 4 sec) 
Heartbeat CPU  0 instructions:  432000000 cycles:  618115397 heartbeat IPC: 0.75865 cumulative IPC: 0.58483 (Simulation time: 0 hr 16 min 6 sec) 
Heartbeat CPU  0 instructions:  433000001 cycles:  619433864 heartbeat IPC: 0.75846 cumulative IPC: 0.58523 (Simulation time: 0 hr 16 min 8 sec) 
Heartbeat CPU  0 instructions:  434000001 cycles:  620754430 heartbeat IPC: 0.75725 cumulative IPC: 0.58563 (Simulation time: 0 hr 16 min 10 sec) 
Heartbeat CPU  0 instructions:  435000000 cycles:  622071562 heartbeat IPC: 0.75922 cumulative IPC: 0.58603 (Simulation time: 0 hr 16 min 13 sec) 
Heartbeat CPU  0 instructions:  436000000 cycles:  623389117 heartbeat IPC: 0.75898 cumulative IPC: 0.58643 (Simulation time: 0 hr 16 min 15 sec) 
Heartbeat CPU  0 instructions:  437000002 cycles:  624706111 heartbeat IPC: 0.75931 cumulative IPC: 0.58683 (Simulation time: 0 hr 16 min 17 sec) 
Heartbeat CPU  0 instructions:  438000000 cycles:  626024934 heartbeat IPC: 0.75825 cumulative IPC: 0.58722 (Simulation time: 0 hr 16 min 19 sec) 
Heartbeat CPU  0 instructions:  439000003 cycles:  627342267 heartbeat IPC: 0.75911 cumulative IPC: 0.58761 (Simulation time: 0 hr 16 min 21 sec) 
Heartbeat CPU  0 instructions:  440000000 cycles:  628658426 heartbeat IPC: 0.75978 cumulative IPC: 0.58800 (Simulation time: 0 hr 16 min 23 sec) 
Heartbeat CPU  0 instructions:  441000000 cycles:  629977512 heartbeat IPC: 0.75810 cumulative IPC: 0.58839 (Simulation time: 0 hr 16 min 26 sec) 
Heartbeat CPU  0 instructions:  442000003 cycles:  631295209 heartbeat IPC: 0.75890 cumulative IPC: 0.58878 (Simulation time: 0 hr 16 min 28 sec) 
Heartbeat CPU  0 instructions:  443000002 cycles:  632615465 heartbeat IPC: 0.75743 cumulative IPC: 0.58916 (Simulation time: 0 hr 16 min 30 sec) 
Heartbeat CPU  0 instructions:  444000000 cycles:  633934400 heartbeat IPC: 0.75819 cumulative IPC: 0.58954 (Simulation time: 0 hr 16 min 32 sec) 
Heartbeat CPU  0 instructions:  445000003 cycles:  635251257 heartbeat IPC: 0.75939 cumulative IPC: 0.58992 (Simulation time: 0 hr 16 min 34 sec) 
Heartbeat CPU  0 instructions:  446000002 cycles:  636567826 heartbeat IPC: 0.75955 cumulative IPC: 0.59031 (Simulation time: 0 hr 16 min 37 sec) 
Heartbeat CPU  0 instructions:  447000000 cycles:  637887652 heartbeat IPC: 0.75767 cumulative IPC: 0.59068 (Simulation time: 0 hr 16 min 39 sec) 
Heartbeat CPU  0 instructions:  448000000 cycles:  639205616 heartbeat IPC: 0.75875 cumulative IPC: 0.59106 (Simulation time: 0 hr 16 min 41 sec) 
Heartbeat CPU  0 instructions:  449000003 cycles:  640524681 heartbeat IPC: 0.75812 cumulative IPC: 0.59143 (Simulation time: 0 hr 16 min 43 sec) 
Heartbeat CPU  0 instructions:  450000001 cycles:  641844227 heartbeat IPC: 0.75783 cumulative IPC: 0.59180 (Simulation time: 0 hr 16 min 45 sec) 
Heartbeat CPU  0 instructions:  451000003 cycles:  643160940 heartbeat IPC: 0.75947 cumulative IPC: 0.59218 (Simulation time: 0 hr 16 min 47 sec) 
Heartbeat CPU  0 instructions:  452000000 cycles:  644477978 heartbeat IPC: 0.75928 cumulative IPC: 0.59255 (Simulation time: 0 hr 16 min 50 sec) 
Heartbeat CPU  0 instructions:  453000000 cycles:  645795492 heartbeat IPC: 0.75901 cumulative IPC: 0.59291 (Simulation time: 0 hr 16 min 52 sec) 
Heartbeat CPU  0 instructions:  454000000 cycles:  647111876 heartbeat IPC: 0.75966 cumulative IPC: 0.59328 (Simulation time: 0 hr 16 min 54 sec) 
Heartbeat CPU  0 instructions:  455000002 cycles:  648429809 heartbeat IPC: 0.75877 cumulative IPC: 0.59365 (Simulation time: 0 hr 16 min 56 sec) 
Heartbeat CPU  0 instructions:  456000000 cycles:  649746858 heartbeat IPC: 0.75927 cumulative IPC: 0.59401 (Simulation time: 0 hr 16 min 58 sec) 
Heartbeat CPU  0 instructions:  457000000 cycles:  651066228 heartbeat IPC: 0.75794 cumulative IPC: 0.59437 (Simulation time: 0 hr 17 min 0 sec) 
Heartbeat CPU  0 instructions:  458000002 cycles:  652383641 heartbeat IPC: 0.75906 cumulative IPC: 0.59473 (Simulation time: 0 hr 17 min 3 sec) 
Heartbeat CPU  0 instructions:  459000001 cycles:  653704761 heartbeat IPC: 0.75693 cumulative IPC: 0.59509 (Simulation time: 0 hr 17 min 5 sec) 
Heartbeat CPU  0 instructions:  460000000 cycles:  655022035 heartbeat IPC: 0.75914 cumulative IPC: 0.59544 (Simulation time: 0 hr 17 min 7 sec) 
Heartbeat CPU  0 instructions:  461000003 cycles:  656339799 heartbeat IPC: 0.75886 cumulative IPC: 0.59580 (Simulation time: 0 hr 17 min 9 sec) 
Heartbeat CPU  0 instructions:  462000002 cycles:  657656472 heartbeat IPC: 0.75949 cumulative IPC: 0.59615 (Simulation time: 0 hr 17 min 11 sec) 
Heartbeat CPU  0 instructions:  463000002 cycles:  658975115 heartbeat IPC: 0.75836 cumulative IPC: 0.59651 (Simulation time: 0 hr 17 min 14 sec) 
Heartbeat CPU  0 instructions:  464000000 cycles:  660293164 heartbeat IPC: 0.75870 cumulative IPC: 0.59686 (Simulation time: 0 hr 17 min 16 sec) 
Heartbeat CPU  0 instructions:  465000001 cycles:  661614216 heartbeat IPC: 0.75697 cumulative IPC: 0.59720 (Simulation time: 0 hr 17 min 18 sec) 
Heartbeat CPU  0 instructions:  466000001 cycles:  662932160 heartbeat IPC: 0.75876 cumulative IPC: 0.59755 (Simulation time: 0 hr 17 min 20 sec) 
Heartbeat CPU  0 instructions:  467000001 cycles:  664248845 heartbeat IPC: 0.75948 cumulative IPC: 0.59790 (Simulation time: 0 hr 17 min 22 sec) 
Heartbeat CPU  0 instructions:  468000000 cycles:  665568878 heartbeat IPC: 0.75756 cumulative IPC: 0.59824 (Simulation time: 0 hr 17 min 25 sec) 
Heartbeat CPU  0 instructions:  469000000 cycles:  666888746 heartbeat IPC: 0.75765 cumulative IPC: 0.59858 (Simulation time: 0 hr 17 min 27 sec) 
Heartbeat CPU  0 instructions:  470000003 cycles:  668204713 heartbeat IPC: 0.75990 cumulative IPC: 0.59892 (Simulation time: 0 hr 17 min 29 sec) 
Heartbeat CPU  0 instructions:  471000002 cycles:  669521556 heartbeat IPC: 0.75939 cumulative IPC: 0.59927 (Simulation time: 0 hr 17 min 31 sec) 
Heartbeat CPU  0 instructions:  472000000 cycles:  670840011 heartbeat IPC: 0.75846 cumulative IPC: 0.59960 (Simulation time: 0 hr 17 min 33 sec) 
Heartbeat CPU  0 instructions:  473000003 cycles:  672158636 heartbeat IPC: 0.75837 cumulative IPC: 0.59994 (Simulation time: 0 hr 17 min 35 sec) 
Heartbeat CPU  0 instructions:  474000002 cycles:  673477491 heartbeat IPC: 0.75823 cumulative IPC: 0.60028 (Simulation time: 0 hr 17 min 38 sec) 
Heartbeat CPU  0 instructions:  475000003 cycles:  674797351 heartbeat IPC: 0.75766 cumulative IPC: 0.60061 (Simulation time: 0 hr 17 min 40 sec) 
Heartbeat CPU  0 instructions:  476000000 cycles:  676114282 heartbeat IPC: 0.75934 cumulative IPC: 0.60094 (Simulation time: 0 hr 17 min 42 sec) 
Heartbeat CPU  0 instructions:  477000002 cycles:  677431791 heartbeat IPC: 0.75901 cumulative IPC: 0.60128 (Simulation time: 0 hr 17 min 44 sec) 
Heartbeat CPU  0 instructions:  478000001 cycles:  678749516 heartbeat IPC: 0.75888 cumulative IPC: 0.60161 (Simulation time: 0 hr 17 min 46 sec) 
Heartbeat CPU  0 instructions:  479000002 cycles:  680068038 heartbeat IPC: 0.75843 cumulative IPC: 0.60193 (Simulation time: 0 hr 17 min 49 sec) 
Heartbeat CPU  0 instructions:  480000000 cycles:  681385668 heartbeat IPC: 0.75894 cumulative IPC: 0.60226 (Simulation time: 0 hr 17 min 51 sec) 
Heartbeat CPU  0 instructions:  481000001 cycles:  682706354 heartbeat IPC: 0.75718 cumulative IPC: 0.60259 (Simulation time: 0 hr 17 min 53 sec) 
Heartbeat CPU  0 instructions:  482000000 cycles:  684780035 heartbeat IPC: 0.48223 cumulative IPC: 0.60219 (Simulation time: 0 hr 17 min 55 sec) 
Heartbeat CPU  0 instructions:  483000003 cycles:  687432224 heartbeat IPC: 0.37705 cumulative IPC: 0.60125 (Simulation time: 0 hr 17 min 58 sec) 
Heartbeat CPU  0 instructions:  484000000 cycles:  690064118 heartbeat IPC: 0.37995 cumulative IPC: 0.60034 (Simulation time: 0 hr 18 min 1 sec) 
Heartbeat CPU  0 instructions:  485000003 cycles:  692614022 heartbeat IPC: 0.39217 cumulative IPC: 0.59952 (Simulation time: 0 hr 18 min 3 sec) 
Heartbeat CPU  0 instructions:  486000002 cycles:  695098050 heartbeat IPC: 0.40257 cumulative IPC: 0.59876 (Simulation time: 0 hr 18 min 6 sec) 
Heartbeat CPU  0 instructions:  487000002 cycles:  697552684 heartbeat IPC: 0.40739 cumulative IPC: 0.59803 (Simulation time: 0 hr 18 min 8 sec) 
Heartbeat CPU  0 instructions:  488000000 cycles:  700053187 heartbeat IPC: 0.39992 cumulative IPC: 0.59727 (Simulation time: 0 hr 18 min 11 sec) 
Heartbeat CPU  0 instructions:  489000001 cycles:  702486877 heartbeat IPC: 0.41090 cumulative IPC: 0.59657 (Simulation time: 0 hr 18 min 13 sec) 
Heartbeat CPU  0 instructions:  490000001 cycles:  705016752 heartbeat IPC: 0.39528 cumulative IPC: 0.59580 (Simulation time: 0 hr 18 min 16 sec) 
Heartbeat CPU  0 instructions:  491000003 cycles:  707569100 heartbeat IPC: 0.39180 cumulative IPC: 0.59500 (Simulation time: 0 hr 18 min 18 sec) 
Heartbeat CPU  0 instructions:  492000000 cycles:  710153680 heartbeat IPC: 0.38691 cumulative IPC: 0.59419 (Simulation time: 0 hr 18 min 21 sec) 
Heartbeat CPU  0 instructions:  493000002 cycles:  712663456 heartbeat IPC: 0.39844 cumulative IPC: 0.59345 (Simulation time: 0 hr 18 min 24 sec) 
Heartbeat CPU  0 instructions:  494000001 cycles:  715163456 heartbeat IPC: 0.40000 cumulative IPC: 0.59272 (Simulation time: 0 hr 18 min 26 sec) 
Heartbeat CPU  0 instructions:  495000000 cycles:  717634451 heartbeat IPC: 0.40469 cumulative IPC: 0.59202 (Simulation time: 0 hr 18 min 29 sec) 
Heartbeat CPU  0 instructions:  496000000 cycles:  720063343 heartbeat IPC: 0.41171 cumulative IPC: 0.59137 (Simulation time: 0 hr 18 min 31 sec) 
Heartbeat CPU  0 instructions:  497000000 cycles:  722519764 heartbeat IPC: 0.40710 cumulative IPC: 0.59070 (Simulation time: 0 hr 18 min 34 sec) 
Heartbeat CPU  0 instructions:  498000001 cycles:  724985012 heartbeat IPC: 0.40564 cumulative IPC: 0.59002 (Simulation time: 0 hr 18 min 36 sec) 
Heartbeat CPU  0 instructions:  499000000 cycles:  727470025 heartbeat IPC: 0.40241 cumulative IPC: 0.58933 (Simulation time: 0 hr 18 min 39 sec) 
Heartbeat CPU  0 instructions:  500000000 cycles:  730011168 heartbeat IPC: 0.39352 cumulative IPC: 0.58860 (Simulation time: 0 hr 18 min 42 sec) 
Heartbeat CPU  0 instructions:  501000002 cycles:  732573859 heartbeat IPC: 0.39022 cumulative IPC: 0.58785 (Simulation time: 0 hr 18 min 44 sec) 
Heartbeat CPU  0 instructions:  502000003 cycles:  735063256 heartbeat IPC: 0.40170 cumulative IPC: 0.58718 (Simulation time: 0 hr 18 min 47 sec) 
Heartbeat CPU  0 instructions:  503000000 cycles:  737553217 heartbeat IPC: 0.40161 cumulative IPC: 0.58650 (Simulation time: 0 hr 18 min 49 sec) 
Heartbeat CPU  0 instructions:  504000000 cycles:  740015648 heartbeat IPC: 0.40610 cumulative IPC: 0.58586 (Simulation time: 0 hr 18 min 52 sec) 
Heartbeat CPU  0 instructions:  505000003 cycles:  742443489 heartbeat IPC: 0.41189 cumulative IPC: 0.58525 (Simulation time: 0 hr 18 min 54 sec) 
Heartbeat CPU  0 instructions:  506000002 cycles:  744870983 heartbeat IPC: 0.41195 cumulative IPC: 0.58464 (Simulation time: 0 hr 18 min 57 sec) 
Heartbeat CPU  0 instructions:  507000000 cycles:  747338050 heartbeat IPC: 0.40534 cumulative IPC: 0.58401 (Simulation time: 0 hr 18 min 59 sec) 
Heartbeat CPU  0 instructions:  508000000 cycles:  749696815 heartbeat IPC: 0.42395 cumulative IPC: 0.58347 (Simulation time: 0 hr 19 min 2 sec) 
Heartbeat CPU  0 instructions:  509000002 cycles:  751919858 heartbeat IPC: 0.44983 cumulative IPC: 0.58305 (Simulation time: 0 hr 19 min 5 sec) 
Heartbeat CPU  0 instructions:  510000002 cycles:  754164165 heartbeat IPC: 0.44557 cumulative IPC: 0.58261 (Simulation time: 0 hr 19 min 8 sec) 
Heartbeat CPU  0 instructions:  511000003 cycles:  756361647 heartbeat IPC: 0.45507 cumulative IPC: 0.58221 (Simulation time: 0 hr 19 min 11 sec) 
Heartbeat CPU  0 instructions:  512000000 cycles:  758501751 heartbeat IPC: 0.46727 cumulative IPC: 0.58186 (Simulation time: 0 hr 19 min 14 sec) 
Heartbeat CPU  0 instructions:  513000003 cycles:  760605037 heartbeat IPC: 0.47545 cumulative IPC: 0.58155 (Simulation time: 0 hr 19 min 17 sec) 
Heartbeat CPU  0 instructions:  514000003 cycles:  762717103 heartbeat IPC: 0.47347 cumulative IPC: 0.58123 (Simulation time: 0 hr 19 min 20 sec) 
Heartbeat CPU  0 instructions:  515000000 cycles:  764822169 heartbeat IPC: 0.47504 cumulative IPC: 0.58091 (Simulation time: 0 hr 19 min 22 sec) 
Heartbeat CPU  0 instructions:  516000000 cycles:  766933954 heartbeat IPC: 0.47353 cumulative IPC: 0.58060 (Simulation time: 0 hr 19 min 25 sec) 
Heartbeat CPU  0 instructions:  517000001 cycles:  769027762 heartbeat IPC: 0.47760 cumulative IPC: 0.58030 (Simulation time: 0 hr 19 min 28 sec) 
Heartbeat CPU  0 instructions:  518000002 cycles:  771123686 heartbeat IPC: 0.47712 cumulative IPC: 0.58000 (Simulation time: 0 hr 19 min 31 sec) 
Heartbeat CPU  0 instructions:  519000000 cycles:  773210499 heartbeat IPC: 0.47920 cumulative IPC: 0.57971 (Simulation time: 0 hr 19 min 34 sec) 
Heartbeat CPU  0 instructions:  520000000 cycles:  775266743 heartbeat IPC: 0.48632 cumulative IPC: 0.57944 (Simulation time: 0 hr 19 min 36 sec) 
Heartbeat CPU  0 instructions:  521000003 cycles:  777172128 heartbeat IPC: 0.52483 cumulative IPC: 0.57930 (Simulation time: 0 hr 19 min 39 sec) 
Heartbeat CPU  0 instructions:  522000002 cycles:  779069155 heartbeat IPC: 0.52714 cumulative IPC: 0.57916 (Simulation time: 0 hr 19 min 42 sec) 
Heartbeat CPU  0 instructions:  523000001 cycles:  780999249 heartbeat IPC: 0.51811 cumulative IPC: 0.57900 (Simulation time: 0 hr 19 min 44 sec) 
Heartbeat CPU  0 instructions:  524000000 cycles:  782906893 heartbeat IPC: 0.52421 cumulative IPC: 0.57886 (Simulation time: 0 hr 19 min 47 sec) 
Heartbeat CPU  0 instructions:  525000000 cycles:  784734636 heartbeat IPC: 0.54712 cumulative IPC: 0.57878 (Simulation time: 0 hr 19 min 50 sec) 
Heartbeat CPU  0 instructions:  526000001 cycles:  786570285 heartbeat IPC: 0.54477 cumulative IPC: 0.57869 (Simulation time: 0 hr 19 min 52 sec) 
Heartbeat CPU  0 instructions:  527000000 cycles:  788466820 heartbeat IPC: 0.52728 cumulative IPC: 0.57856 (Simulation time: 0 hr 19 min 55 sec) 
Heartbeat CPU  0 instructions:  528000000 cycles:  790348793 heartbeat IPC: 0.53136 cumulative IPC: 0.57844 (Simulation time: 0 hr 19 min 58 sec) 
Heartbeat CPU  0 instructions:  529000002 cycles:  792237181 heartbeat IPC: 0.52955 cumulative IPC: 0.57832 (Simulation time: 0 hr 20 min 1 sec) 
Heartbeat CPU  0 instructions:  530000003 cycles:  794145757 heartbeat IPC: 0.52395 cumulative IPC: 0.57818 (Simulation time: 0 hr 20 min 3 sec) 
Heartbeat CPU  0 instructions:  531000002 cycles:  796025134 heartbeat IPC: 0.53209 cumulative IPC: 0.57806 (Simulation time: 0 hr 20 min 6 sec) 
Heartbeat CPU  0 instructions:  532000000 cycles:  797908644 heartbeat IPC: 0.53092 cumulative IPC: 0.57794 (Simulation time: 0 hr 20 min 9 sec) 
Heartbeat CPU  0 instructions:  533000000 cycles:  799801843 heartbeat IPC: 0.52821 cumulative IPC: 0.57782 (Simulation time: 0 hr 20 min 12 sec) 
Heartbeat CPU  0 instructions:  534000000 cycles:  801704783 heartbeat IPC: 0.52550 cumulative IPC: 0.57769 (Simulation time: 0 hr 20 min 14 sec) 
Heartbeat CPU  0 instructions:  535000000 cycles:  803614520 heartbeat IPC: 0.52363 cumulative IPC: 0.57755 (Simulation time: 0 hr 20 min 17 sec) 
Heartbeat CPU  0 instructions:  536000000 cycles:  805525959 heartbeat IPC: 0.52317 cumulative IPC: 0.57741 (Simulation time: 0 hr 20 min 20 sec) 
Heartbeat CPU  0 instructions:  537000001 cycles:  807422900 heartbeat IPC: 0.52717 cumulative IPC: 0.57728 (Simulation time: 0 hr 20 min 22 sec) 
Heartbeat CPU  0 instructions:  538000002 cycles:  809318482 heartbeat IPC: 0.52754 cumulative IPC: 0.57716 (Simulation time: 0 hr 20 min 25 sec) 
Heartbeat CPU  0 instructions:  539000000 cycles:  811182031 heartbeat IPC: 0.53661 cumulative IPC: 0.57706 (Simulation time: 0 hr 20 min 28 sec) 
Heartbeat CPU  0 instructions:  540000000 cycles:  813089589 heartbeat IPC: 0.52423 cumulative IPC: 0.57693 (Simulation time: 0 hr 20 min 31 sec) 
Heartbeat CPU  0 instructions:  541000002 cycles:  814948578 heartbeat IPC: 0.53793 cumulative IPC: 0.57683 (Simulation time: 0 hr 20 min 33 sec) 
Heartbeat CPU  0 instructions:  542000000 cycles:  816873159 heartbeat IPC: 0.51959 cumulative IPC: 0.57669 (Simulation time: 0 hr 20 min 36 sec) 
Heartbeat CPU  0 instructions:  543000001 cycles:  818845059 heartbeat IPC: 0.50713 cumulative IPC: 0.57651 (Simulation time: 0 hr 20 min 39 sec) 
Heartbeat CPU  0 instructions:  544000000 cycles:  820789410 heartbeat IPC: 0.51431 cumulative IPC: 0.57636 (Simulation time: 0 hr 20 min 42 sec) 
Heartbeat CPU  0 instructions:  545000002 cycles:  822733984 heartbeat IPC: 0.51425 cumulative IPC: 0.57620 (Simulation time: 0 hr 20 min 44 sec) 
Heartbeat CPU  0 instructions:  546000001 cycles:  824524626 heartbeat IPC: 0.55846 cumulative IPC: 0.57616 (Simulation time: 0 hr 20 min 47 sec) 
Heartbeat CPU  0 instructions:  547000001 cycles:  826041630 heartbeat IPC: 0.65919 cumulative IPC: 0.57632 (Simulation time: 0 hr 20 min 49 sec) 
Heartbeat CPU  0 instructions:  548000000 cycles:  827559393 heartbeat IPC: 0.65886 cumulative IPC: 0.57648 (Simulation time: 0 hr 20 min 52 sec) 
Heartbeat CPU  0 instructions:  549000000 cycles:  829073715 heartbeat IPC: 0.66036 cumulative IPC: 0.57664 (Simulation time: 0 hr 20 min 54 sec) 
Heartbeat CPU  0 instructions:  550000002 cycles:  830593478 heartbeat IPC: 0.65800 cumulative IPC: 0.57680 (Simulation time: 0 hr 20 min 56 sec) 
Heartbeat CPU  0 instructions:  551000001 cycles:  832080572 heartbeat IPC: 0.67245 cumulative IPC: 0.57698 (Simulation time: 0 hr 20 min 59 sec) 
Heartbeat CPU  0 instructions:  552000000 cycles:  833560568 heartbeat IPC: 0.67568 cumulative IPC: 0.57717 (Simulation time: 0 hr 21 min 1 sec) 
Heartbeat CPU  0 instructions:  553000000 cycles:  835009978 heartbeat IPC: 0.68994 cumulative IPC: 0.57738 (Simulation time: 0 hr 21 min 3 sec) 
Heartbeat CPU  0 instructions:  554000001 cycles:  836471399 heartbeat IPC: 0.68427 cumulative IPC: 0.57758 (Simulation time: 0 hr 21 min 6 sec) 
Heartbeat CPU  0 instructions:  555000002 cycles:  837905427 heartbeat IPC: 0.69734 cumulative IPC: 0.57780 (Simulation time: 0 hr 21 min 8 sec) 
Heartbeat CPU  0 instructions:  556000000 cycles:  839350399 heartbeat IPC: 0.69205 cumulative IPC: 0.57801 (Simulation time: 0 hr 21 min 10 sec) 
Heartbeat CPU  0 instructions:  557000002 cycles:  840724485 heartbeat IPC: 0.72776 cumulative IPC: 0.57827 (Simulation time: 0 hr 21 min 13 sec) 
Heartbeat CPU  0 instructions:  558000003 cycles:  842072231 heartbeat IPC: 0.74198 cumulative IPC: 0.57854 (Simulation time: 0 hr 21 min 15 sec) 
Heartbeat CPU  0 instructions:  559000002 cycles:  843351692 heartbeat IPC: 0.78158 cumulative IPC: 0.57887 (Simulation time: 0 hr 21 min 17 sec) 
Heartbeat CPU  0 instructions:  560000000 cycles:  844585469 heartbeat IPC: 0.81052 cumulative IPC: 0.57923 (Simulation time: 0 hr 21 min 19 sec) 
Heartbeat CPU  0 instructions:  561000002 cycles:  845826219 heartbeat IPC: 0.80597 cumulative IPC: 0.57959 (Simulation time: 0 hr 21 min 21 sec) 
Heartbeat CPU  0 instructions:  562000002 cycles:  847103747 heartbeat IPC: 0.78276 cumulative IPC: 0.57991 (Simulation time: 0 hr 21 min 24 sec) 
Heartbeat CPU  0 instructions:  563000001 cycles:  848503185 heartbeat IPC: 0.71457 cumulative IPC: 0.58015 (Simulation time: 0 hr 21 min 26 sec) 
Heartbeat CPU  0 instructions:  564000000 cycles:  849935712 heartbeat IPC: 0.69807 cumulative IPC: 0.58036 (Simulation time: 0 hr 21 min 28 sec) 
Heartbeat CPU  0 instructions:  565000003 cycles:  851387180 heartbeat IPC: 0.68896 cumulative IPC: 0.58056 (Simulation time: 0 hr 21 min 30 sec) 
Heartbeat CPU  0 instructions:  566000002 cycles:  852793140 heartbeat IPC: 0.71126 cumulative IPC: 0.58079 (Simulation time: 0 hr 21 min 33 sec) 
Heartbeat CPU  0 instructions:  567000001 cycles:  854226469 heartbeat IPC: 0.69768 cumulative IPC: 0.58099 (Simulation time: 0 hr 21 min 35 sec) 
Heartbeat CPU  0 instructions:  568000000 cycles:  855532949 heartbeat IPC: 0.76541 cumulative IPC: 0.58129 (Simulation time: 0 hr 21 min 37 sec) 
Heartbeat CPU  0 instructions:  569000001 cycles:  856850215 heartbeat IPC: 0.75915 cumulative IPC: 0.58158 (Simulation time: 0 hr 21 min 39 sec) 
Heartbeat CPU  0 instructions:  570000001 cycles:  858108331 heartbeat IPC: 0.79484 cumulative IPC: 0.58192 (Simulation time: 0 hr 21 min 42 sec) 
Heartbeat CPU  0 instructions:  571000003 cycles:  859357808 heartbeat IPC: 0.80034 cumulative IPC: 0.58225 (Simulation time: 0 hr 21 min 44 sec) 
Heartbeat CPU  0 instructions:  572000000 cycles:  860599100 heartbeat IPC: 0.80561 cumulative IPC: 0.58260 (Simulation time: 0 hr 21 min 46 sec) 
Heartbeat CPU  0 instructions:  573000001 cycles:  861941345 heartbeat IPC: 0.74502 cumulative IPC: 0.58286 (Simulation time: 0 hr 21 min 48 sec) 
Heartbeat CPU  0 instructions:  574000003 cycles:  863309254 heartbeat IPC: 0.73104 cumulative IPC: 0.58311 (Simulation time: 0 hr 21 min 51 sec) 
Heartbeat CPU  0 instructions:  575000000 cycles:  864744120 heartbeat IPC: 0.69693 cumulative IPC: 0.58331 (Simulation time: 0 hr 21 min 53 sec) 
Heartbeat CPU  0 instructions:  576000000 cycles:  866137693 heartbeat IPC: 0.71758 cumulative IPC: 0.58354 (Simulation time: 0 hr 21 min 55 sec) 
Heartbeat CPU  0 instructions:  577000002 cycles:  867554504 heartbeat IPC: 0.70581 cumulative IPC: 0.58376 (Simulation time: 0 hr 21 min 57 sec) 
Heartbeat CPU  0 instructions:  578000003 cycles:  868896736 heartbeat IPC: 0.74503 cumulative IPC: 0.58402 (Simulation time: 0 hr 22 min 0 sec) 
Heartbeat CPU  0 instructions:  579000000 cycles:  870247234 heartbeat IPC: 0.74047 cumulative IPC: 0.58428 (Simulation time: 0 hr 22 min 2 sec) 
Heartbeat CPU  0 instructions:  580000000 cycles:  871579843 heartbeat IPC: 0.75041 cumulative IPC: 0.58455 (Simulation time: 0 hr 22 min 4 sec) 
Heartbeat CPU  0 instructions:  581000002 cycles:  872888955 heartbeat IPC: 0.76388 cumulative IPC: 0.58483 (Simulation time: 0 hr 22 min 6 sec) 
Heartbeat CPU  0 instructions:  582000000 cycles:  874180147 heartbeat IPC: 0.77448 cumulative IPC: 0.58513 (Simulation time: 0 hr 22 min 9 sec) 
Heartbeat CPU  0 instructions:  583000000 cycles:  875503270 heartbeat IPC: 0.75579 cumulative IPC: 0.58540 (Simulation time: 0 hr 22 min 11 sec) 
Heartbeat CPU  0 instructions:  584000000 cycles:  876917622 heartbeat IPC: 0.70704 cumulative IPC: 0.58561 (Simulation time: 0 hr 22 min 13 sec) 
Heartbeat CPU  0 instructions:  585000001 cycles:  878335239 heartbeat IPC: 0.70541 cumulative IPC: 0.58582 (Simulation time: 0 hr 22 min 15 sec) 
Heartbeat CPU  0 instructions:  586000000 cycles:  879737928 heartbeat IPC: 0.71292 cumulative IPC: 0.58603 (Simulation time: 0 hr 22 min 18 sec) 
Heartbeat CPU  0 instructions:  587000000 cycles:  881108700 heartbeat IPC: 0.72952 cumulative IPC: 0.58627 (Simulation time: 0 hr 22 min 20 sec) 
Heartbeat CPU  0 instructions:  588000000 cycles:  882500290 heartbeat IPC: 0.71860 cumulative IPC: 0.58649 (Simulation time: 0 hr 22 min 22 sec) 
Heartbeat CPU  0 instructions:  589000001 cycles:  883838746 heartbeat IPC: 0.74713 cumulative IPC: 0.58675 (Simulation time: 0 hr 22 min 24 sec) 
Heartbeat CPU  0 instructions:  590000003 cycles:  885181262 heartbeat IPC: 0.74487 cumulative IPC: 0.58700 (Simulation time: 0 hr 22 min 27 sec) 
Heartbeat CPU  0 instructions:  591000002 cycles:  886480528 heartbeat IPC: 0.76966 cumulative IPC: 0.58729 (Simulation time: 0 hr 22 min 29 sec) 
Heartbeat CPU  0 instructions:  592000000 cycles:  887795309 heartbeat IPC: 0.76058 cumulative IPC: 0.58756 (Simulation time: 0 hr 22 min 31 sec) 
Heartbeat CPU  0 instructions:  593000000 cycles:  889137524 heartbeat IPC: 0.74504 cumulative IPC: 0.58781 (Simulation time: 0 hr 22 min 33 sec) 
Heartbeat CPU  0 instructions:  594000003 cycles:  890468145 heartbeat IPC: 0.75153 cumulative IPC: 0.58807 (Simulation time: 0 hr 22 min 36 sec) 
Heartbeat CPU  0 instructions:  595000000 cycles:  891826422 heartbeat IPC: 0.73622 cumulative IPC: 0.58831 (Simulation time: 0 hr 22 min 38 sec) 
Heartbeat CPU  0 instructions:  596000000 cycles:  893214192 heartbeat IPC: 0.72058 cumulative IPC: 0.58853 (Simulation time: 0 hr 22 min 40 sec) 
Heartbeat CPU  0 instructions:  597000001 cycles:  894580526 heartbeat IPC: 0.73189 cumulative IPC: 0.58876 (Simulation time: 0 hr 22 min 42 sec) 
Heartbeat CPU  0 instructions:  598000001 cycles:  895934953 heartbeat IPC: 0.73832 cumulative IPC: 0.58900 (Simulation time: 0 hr 22 min 45 sec) 
Heartbeat CPU  0 instructions:  599000000 cycles:  897295524 heartbeat IPC: 0.73498 cumulative IPC: 0.58923 (Simulation time: 0 hr 22 min 47 sec) 
Heartbeat CPU  0 instructions:  600000000 cycles:  898628783 heartbeat IPC: 0.75004 cumulative IPC: 0.58949 (Simulation time: 0 hr 22 min 49 sec) 
Finished CPU 0 instructions: 500000002 cycles: 848197883 cumulative IPC: 0.58949 (Simulation time: 0 hr 22 min 49 sec) 

ChampSim completed all CPUs

[ROI Statistics]
Core_0_instructions 500000002
Core_0_cycles 848197883
Core_0_IPC 0.58949

Core_0_branch_prediction_accuracy 99.14567
Core_0_branch_MPKI 0.22121
Core_0_average_ROB_occupancy_at_mispredict 245.41889

Core_0_L1D_total_access 143316657
Core_0_L1D_total_hit 137610391
Core_0_L1D_total_miss 5706266
Core_0_L1D_loads 130073501
Core_0_L1D_load_hit 125778254
Core_0_L1D_load_miss 4295247
Core_0_L1D_RFOs 13243156
Core_0_L1D_RFO_hit 11832137
Core_0_L1D_RFO_miss 1411019
Core_0_L1D_prefetches 0
Core_0_L1D_prefetch_hit 0
Core_0_L1D_prefetch_miss 0
Core_0_L1D_writebacks 0
Core_0_L1D_writeback_hit 0
Core_0_L1D_writeback_miss 0
Core_0_L1D_prefetch_requested 0
Core_0_L1D_prefetch_dropped 0
Core_0_L1D_prefetch_issued 0
Core_0_L1D_prefetch_filled 0
Core_0_L1D_prefetch_useful 0
Core_0_L1D_prefetch_useless 0
Core_0_L1D_prefetch_late 0
Core_0_L1D_average_miss_latency 163.29384

Core_0_L1D_rq_access 194151729
Core_0_L1D_rq_forward 0
Core_0_L1D_rq_merged 61582196
Core_0_L1D_rq_to_cache 132569533
Core_0_L1D_rq_full 0

Core_0_L1D_wq_access 17666329
Core_0_L1D_wq_forward 0
Core_0_L1D_wq_merged 10101
Core_0_L1D_wq_to_cache 17656228
Core_0_L1D_wq_full 329

Core_0_L1D_pq_access 0
Core_0_L1D_pq_forward 0
Core_0_L1D_pq_merged 0
Core_0_L1D_pq_to_cache 0
Core_0_L1D_pq_full 0

Core_0_L1D_acc_epochs 871433
Core_0_L1D_acc_level_0 871433
Core_0_L1D_acc_level_1 0
Core_0_L1D_acc_level_2 0
Core_0_L1D_acc_level_3 0
Core_0_L1D_acc_level_4 0
Core_0_L1D_acc_level_5 0
Core_0_L1D_acc_level_6 0
Core_0_L1D_acc_level_7 0
Core_0_L1D_acc_level_8 0
Core_0_L1D_acc_level_9 0

Core_0_L1I_total_access 115607657
Core_0_L1I_total_hit 115606851
Core_0_L1I_total_miss 806
Core_0_L1I_loads 115607657
Core_0_L1I_load_hit 115606851
Core_0_L1I_load_miss 806
Core_0_L1I_RFOs 0
Core_0_L1I_RFO_hit 0
Core_0_L1I_RFO_miss 0
Core_0_L1I_prefetches 0
Core_0_L1I_prefetch_hit 0
Core_0_L1I_prefetch_miss 0
Core_0_L1I_writebacks 0
Core_0_L1I_writeback_hit 0
Core_0_L1I_writeback_miss 0
Core_0_L1I_prefetch_requested 0
Core_0_L1I_prefetch_dropped 0
Core_0_L1I_prefetch_issued 0
Core_0_L1I_prefetch_filled 0
Core_0_L1I_prefetch_useful 0
Core_0_L1I_prefetch_useless 0
Core_0_L1I_prefetch_late 0
Core_0_L1I_average_miss_latency 263.93548

Core_0_L1I_rq_access 500000001
Core_0_L1I_rq_forward 0
Core_0_L1I_rq_merged 384391147
Core_0_L1I_rq_to_cache 115608854
Core_0_L1I_rq_full 0

Core_0_L1I_wq_access 0
Core_0_L1I_wq_forward 0
Core_0_L1I_wq_merged 0
Core_0_L1I_wq_to_cache 0
Core_0_L1I_wq_full 0

Core_0_L1I_pq_access 0
Core_0_L1I_pq_forward 0
Core_0_L1I_pq_merged 0
Core_0_L1I_pq_to_cache 0
Core_0_L1I_pq_full 0

Core_0_L1I_acc_epochs 871433
Core_0_L1I_acc_level_0 871433
Core_0_L1I_acc_level_1 0
Core_0_L1I_acc_level_2 0
Core_0_L1I_acc_level_3 0
Core_0_L1I_acc_level_4 0
Core_0_L1I_acc_level_5 0
Core_0_L1I_acc_level_6 0
Core_0_L1I_acc_level_7 0
Core_0_L1I_acc_level_8 0
Core_0_L1I_acc_level_9 0

Core_0_L2C_total_access 7552311
Core_0_L2C_total_hit 3285842
Core_0_L2C_total_miss 4266469
Core_0_L2C_loads 4296022
Core_0_L2C_load_hit 1023269
Core_0_L2C_load_miss 3272753
Core_0_L2C_RFOs 1410755
Core_0_L2C_RFO_hit 418934
Core_0_L2C_RFO_miss 991821
Core_0_L2C_prefetches 0
Core_0_L2C_prefetch_hit 0
Core_0_L2C_prefetch_miss 0
Core_0_L2C_writebacks 1845534
Core_0_L2C_writeback_hit 1843639
Core_0_L2C_writeback_miss 1895
Core_0_L2C_prefetch_requested 0
Core_0_L2C_prefetch_dropped 0
Core_0_L2C_prefetch_issued 0
Core_0_L2C_prefetch_filled 0
Core_0_L2C_prefetch_useful 0
Core_0_L2C_prefetch_useless 0
Core_0_L2C_prefetch_late 0
Core_0_L2C_average_miss_latency 199.37158

Core_0_L2C_rq_access 5707072
Core_0_L2C_rq_forward 0
Core_0_L2C_rq_merged 0
Core_0_L2C_rq_to_cache 5706777
Core_0_L2C_rq_full 0

Core_0_L2C_wq_access 1845534
Core_0_L2C_wq_forward 295
Core_0_L2C_wq_merged 0
Core_0_L2C_wq_to_cache 1845534
Core_0_L2C_wq_full 0

Core_0_L2C_pq_access 0
Core_0_L2C_pq_forward 0
Core_0_L2C_pq_merged 0
Core_0_L2C_pq_to_cache 0
Core_0_L2C_pq_full 0

Core_0_L2C_acc_epochs 871433
Core_0_L2C_acc_level_0 871433
Core_0_L2C_acc_level_1 0
Core_0_L2C_acc_level_2 0
Core_0_L2C_acc_level_3 0
Core_0_L2C_acc_level_4 0
Core_0_L2C_acc_level_5 0
Core_0_L2C_acc_level_6 0
Core_0_L2C_acc_level_7 0
Core_0_L2C_acc_level_8 0
Core_0_L2C_acc_level_9 0

Core_0_LLC_total_access 5581448
Core_0_LLC_total_hit 1149479
Core_0_LLC_total_miss 4431969
Core_0_LLC_loads 3272753
Core_0_LLC_load_hit 658756
Core_0_LLC_load_miss 2613997
Core_0_LLC_RFOs 991821
Core_0_LLC_RFO_hit 92360
Core_0_LLC_RFO_miss 899461
Core_0_LLC_prefetches 0
Core_0_LLC_prefetch_hit 0
Core_0_LLC_prefetch_miss 0
Core_0_LLC_writebacks 1316874
Core_0_LLC_writeback_hit 398363
Core_0_LLC_writeback_miss 918511
Core_0_LLC_prefetch_requested 0
Core_0_LLC_prefetch_dropped 0
Core_0_LLC_prefetch_issued 0
Core_0_LLC_prefetch_filled 0
Core_0_LLC_prefetch_useful 0
Core_0_LLC_prefetch_useless 0
Core_0_LLC_prefetch_late 0
Core_0_LLC_average_miss_latency 162.78635

Core_0_LLC_rq_access 4264574
Core_0_LLC_rq_forward 0
Core_0_LLC_rq_merged 0
Core_0_LLC_rq_to_cache 4264574
Core_0_LLC_rq_full 0

Core_0_LLC_wq_access 1316874
Core_0_LLC_wq_forward 0
Core_0_LLC_wq_merged 0
Core_0_LLC_wq_to_cache 1316874
Core_0_LLC_wq_full 0

Core_0_LLC_pq_access 0
Core_0_LLC_pq_forward 0
Core_0_LLC_pq_merged 0
Core_0_LLC_pq_to_cache 0
Core_0_LLC_pq_full 0

Core_0_LLC_acc_epochs 877568
Core_0_LLC_acc_level_0 877568
Core_0_LLC_acc_level_1 0
Core_0_LLC_acc_level_2 0
Core_0_LLC_acc_level_3 0
Core_0_LLC_acc_level_4 0
Core_0_LLC_acc_level_5 0
Core_0_LLC_acc_level_6 0
Core_0_LLC_acc_level_7 0
Core_0_LLC_acc_level_8 0
Core_0_LLC_acc_level_9 0

Core_0_major_page_fault 0
Core_0_minor_page_fault 19646

Channel_0_RQ_row_buffer_hit 794917
Channel_0_RQ_row_buffer_miss 2718506
Channel_0_WQ_row_buffer_hit 539558
Channel_0_WQ_row_buffer_miss 623404
Channel_0_WQ_full 0
Channel_0_dbus_congested 1235963

avg_congested_cycle 16

DRAM_bw_pochs 3510269
DRAM_bw_level_0 2883423
DRAM_bw_level_1 514478
DRAM_bw_level_2 78025
DRAM_bw_level_3 34343
