*************************************************
   ChampSim Multicore Out-of-Order Simulator
   Last compiled: Dec 11 2024 17:59:53
*************************************************
parsing config file: /home/functionmain/桌面/Pythia/config/spp_dev2.ini

trace_0 /home/functionmain/桌面/Pythia/traces/445.gobmk-30B.champsimtrace.xz
adding L2C_PREFETCHER: SPP_dev2
Initialize SIGNATURE TABLE
ST_SET: 1
ST_WAY: 256
ST_TAG_BIT: 16
ST_TAG_MASK: ffff

Initialize PATTERN TABLE
PT_SET: 512
PT_WAY: 4
SIG_DELTA_BIT: 7
C_SIG_BIT: 4
C_DELTA_BIT: 4

Initialize PREFETCH FILTER
FILTER_SET: 1024
fill_threshold: 90
pf_threshold: 40

Initialize SHIP state
warmup_instructions 100000000
simulation_instructions 500000000
champsim_seed 165
measure_ipc 0
measure_ipc_epoch 1000
measure_dram_bw 1
measure_dram_bw_epoch 256
measure_cache_acc 1
measure_cache_acc_epoch 1024
l1d_perfect 0
l2c_perfect 0
llc_perfect 0
l1d_semi_perfect 0
l2c_semi_perfect 0
llc_semi_perfect 0
semi_perfect_cache_page_buffer_size 64

num_cpus 1
cpu_freq 4000
dram_io_freq 2400
page_size 4096
block_size 64
max_read_per_cycle 8
max_fill_per_cycle 1
dram_channels 1
log2_dram_channels 0
dram_ranks 1
dram_banks 8
dram_rows 65536
dram_columns 128
dram_row_size 8
dram_size 4096
dram_pages 1048576

fetch_width 6
decode_width 6
exec_width 4
lq_width 2
sq_width 2
retire_width 4
scheduler_size 128
branch_mispredict_penalty 20
rob_size 256
lq_size 72
sq_size 56
num_instr_destinations_sparc 4
num_instr_destinations 2
num_instr_sources 4

itlb_set 16
itlb_way 8
itlb_rq_size 16
itlb_wq_size 16
itlb_pq_size 0
itlb_mshr_size 8
itlb_latency 1

dtlb_set 16
dtlb_way 4
dtlb_rq_size 16
dtlb_wq_size 16
dtlb_pq_size 0
dtlb_mshr_size 8
dtlb_latency 1

stlb_set 128
stlb_way 12
stlb_rq_size 32
stlb_wq_size 32
stlb_pq_size 0
stlb_mshr_size 16
stlb_latency 8

l1i_size 32
l1i_set 64
l1i_way 8
l1i_rq_size 64
l1i_wq_size 64
l1i_pq_size 8
l1i_mshr_size 8
l1i_latency 1

l1d_size 32
l1d_set 64
l1d_way 8
l1d_rq_size 64
l1d_wq_size 64
l1d_pq_size 8
l1d_mshr_size 16
l1d_latency 4

l2c_size 256
l2c_set 512
l2c_way 8
l2c_rq_size 32
l2c_wq_size 32
l2c_pq_size 32
l2c_mshr_size 32
l2c_latency 10

llc_size 2048
llc_set 2048
llc_way 16
llc_rq_size 32
llc_wq_size 32
llc_pq_size 32
llc_mshr_size 64
llc_latency 20

dram_channel_width 8
dram_wq_size 64
dram_rq_size 64
tRP 15
tRCD 15
tCAS 12.5
dram_dbus_turn_around_time 30
dram_write_high_wm 56
dram_write_low_wm 48
min_dram_writes_per_switch 16
dram_mtps 2400
dram_dbus_return_time 13


Heartbeat CPU  0 instructions:    1000000 cycles:     861985 heartbeat IPC: 1.16011 cumulative IPC: 1.16011 (Simulation time: 0 hr 0 min 1 sec) 
Heartbeat CPU  0 instructions:    2000000 cycles:    1864998 heartbeat IPC: 0.99700 cumulative IPC: 1.07239 (Simulation time: 0 hr 0 min 2 sec) 
Heartbeat CPU  0 instructions:    3000001 cycles:    2990805 heartbeat IPC: 0.88825 cumulative IPC: 1.00307 (Simulation time: 0 hr 0 min 4 sec) 
Heartbeat CPU  0 instructions:    4000000 cycles:    4091701 heartbeat IPC: 0.90835 cumulative IPC: 0.97759 (Simulation time: 0 hr 0 min 5 sec) 
Heartbeat CPU  0 instructions:    5000001 cycles:    5174027 heartbeat IPC: 0.92394 cumulative IPC: 0.96637 (Simulation time: 0 hr 0 min 7 sec) 
Heartbeat CPU  0 instructions:    6000000 cycles:    6296895 heartbeat IPC: 0.89058 cumulative IPC: 0.95285 (Simulation time: 0 hr 0 min 8 sec) 
Heartbeat CPU  0 instructions:    7000001 cycles:    7364166 heartbeat IPC: 0.93697 cumulative IPC: 0.95055 (Simulation time: 0 hr 0 min 9 sec) 
Heartbeat CPU  0 instructions:    8000000 cycles:    8566971 heartbeat IPC: 0.83139 cumulative IPC: 0.93382 (Simulation time: 0 hr 0 min 11 sec) 
Heartbeat CPU  0 instructions:    9000000 cycles:    9686425 heartbeat IPC: 0.89329 cumulative IPC: 0.92914 (Simulation time: 0 hr 0 min 12 sec) 
Heartbeat CPU  0 instructions:   10000003 cycles:   10816247 heartbeat IPC: 0.88510 cumulative IPC: 0.92454 (Simulation time: 0 hr 0 min 14 sec) 
Heartbeat CPU  0 instructions:   11000000 cycles:   11874015 heartbeat IPC: 0.94538 cumulative IPC: 0.92639 (Simulation time: 0 hr 0 min 15 sec) 
Heartbeat CPU  0 instructions:   12000000 cycles:   13018242 heartbeat IPC: 0.87395 cumulative IPC: 0.92178 (Simulation time: 0 hr 0 min 16 sec) 
Heartbeat CPU  0 instructions:   13000001 cycles:   14157728 heartbeat IPC: 0.87759 cumulative IPC: 0.91823 (Simulation time: 0 hr 0 min 18 sec) 
Heartbeat CPU  0 instructions:   14000000 cycles:   15084424 heartbeat IPC: 1.07910 cumulative IPC: 0.92811 (Simulation time: 0 hr 0 min 19 sec) 
Heartbeat CPU  0 instructions:   15000001 cycles:   16048488 heartbeat IPC: 1.03728 cumulative IPC: 0.93467 (Simulation time: 0 hr 0 min 20 sec) 
Heartbeat CPU  0 instructions:   16000000 cycles:   17177507 heartbeat IPC: 0.88572 cumulative IPC: 0.93145 (Simulation time: 0 hr 0 min 22 sec) 
Heartbeat CPU  0 instructions:   17000000 cycles:   18273067 heartbeat IPC: 0.91278 cumulative IPC: 0.93033 (Simulation time: 0 hr 0 min 23 sec) 
Heartbeat CPU  0 instructions:   18000003 cycles:   19389543 heartbeat IPC: 0.89568 cumulative IPC: 0.92834 (Simulation time: 0 hr 0 min 25 sec) 
Heartbeat CPU  0 instructions:   19000001 cycles:   20470731 heartbeat IPC: 0.92491 cumulative IPC: 0.92815 (Simulation time: 0 hr 0 min 26 sec) 
Heartbeat CPU  0 instructions:   20000000 cycles:   21562597 heartbeat IPC: 0.91586 cumulative IPC: 0.92753 (Simulation time: 0 hr 0 min 27 sec) 
Heartbeat CPU  0 instructions:   21000000 cycles:   22755071 heartbeat IPC: 0.83859 cumulative IPC: 0.92287 (Simulation time: 0 hr 0 min 29 sec) 
Heartbeat CPU  0 instructions:   22000003 cycles:   23882449 heartbeat IPC: 0.88702 cumulative IPC: 0.92118 (Simulation time: 0 hr 0 min 30 sec) 
Heartbeat CPU  0 instructions:   23000001 cycles:   24932580 heartbeat IPC: 0.95226 cumulative IPC: 0.92249 (Simulation time: 0 hr 0 min 32 sec) 
Heartbeat CPU  0 instructions:   24000000 cycles:   26049412 heartbeat IPC: 0.89539 cumulative IPC: 0.92133 (Simulation time: 0 hr 0 min 33 sec) 
Heartbeat CPU  0 instructions:   25000000 cycles:   26928654 heartbeat IPC: 1.13734 cumulative IPC: 0.92838 (Simulation time: 0 hr 0 min 34 sec) 
Heartbeat CPU  0 instructions:   26000000 cycles:   27898895 heartbeat IPC: 1.03067 cumulative IPC: 0.93194 (Simulation time: 0 hr 0 min 35 sec) 
Heartbeat CPU  0 instructions:   27000002 cycles:   29001582 heartbeat IPC: 0.90688 cumulative IPC: 0.93098 (Simulation time: 0 hr 0 min 37 sec) 
Heartbeat CPU  0 instructions:   28000000 cycles:   30122314 heartbeat IPC: 0.89227 cumulative IPC: 0.92954 (Simulation time: 0 hr 0 min 38 sec) 
Heartbeat CPU  0 instructions:   29000003 cycles:   31188369 heartbeat IPC: 0.93804 cumulative IPC: 0.92983 (Simulation time: 0 hr 0 min 40 sec) 
Heartbeat CPU  0 instructions:   30000002 cycles:   32280922 heartbeat IPC: 0.91529 cumulative IPC: 0.92934 (Simulation time: 0 hr 0 min 41 sec) 
Heartbeat CPU  0 instructions:   31000003 cycles:   33383337 heartbeat IPC: 0.90710 cumulative IPC: 0.92861 (Simulation time: 0 hr 0 min 42 sec) 
Heartbeat CPU  0 instructions:   32000000 cycles:   34483045 heartbeat IPC: 0.90933 cumulative IPC: 0.92799 (Simulation time: 0 hr 0 min 44 sec) 
Heartbeat CPU  0 instructions:   33000001 cycles:   35470331 heartbeat IPC: 1.01288 cumulative IPC: 0.93036 (Simulation time: 0 hr 0 min 45 sec) 
Heartbeat CPU  0 instructions:   34000001 cycles:   36608263 heartbeat IPC: 0.87879 cumulative IPC: 0.92875 (Simulation time: 0 hr 0 min 47 sec) 
Heartbeat CPU  0 instructions:   35000003 cycles:   37680614 heartbeat IPC: 0.93253 cumulative IPC: 0.92886 (Simulation time: 0 hr 0 min 48 sec) 
Heartbeat CPU  0 instructions:   36000000 cycles:   38872235 heartbeat IPC: 0.83919 cumulative IPC: 0.92611 (Simulation time: 0 hr 0 min 49 sec) 
Heartbeat CPU  0 instructions:   37000002 cycles:   39988264 heartbeat IPC: 0.89604 cumulative IPC: 0.92527 (Simulation time: 0 hr 0 min 51 sec) 
Heartbeat CPU  0 instructions:   38000000 cycles:   41038264 heartbeat IPC: 0.95238 cumulative IPC: 0.92597 (Simulation time: 0 hr 0 min 52 sec) 
Heartbeat CPU  0 instructions:   39000001 cycles:   41931809 heartbeat IPC: 1.11914 cumulative IPC: 0.93008 (Simulation time: 0 hr 0 min 54 sec) 
Heartbeat CPU  0 instructions:   40000000 cycles:   42889690 heartbeat IPC: 1.04397 cumulative IPC: 0.93263 (Simulation time: 0 hr 0 min 55 sec) 
Heartbeat CPU  0 instructions:   41000000 cycles:   43991062 heartbeat IPC: 0.90796 cumulative IPC: 0.93201 (Simulation time: 0 hr 0 min 56 sec) 
Heartbeat CPU  0 instructions:   42000000 cycles:   45116155 heartbeat IPC: 0.88882 cumulative IPC: 0.93093 (Simulation time: 0 hr 0 min 58 sec) 
Heartbeat CPU  0 instructions:   43000003 cycles:   46183786 heartbeat IPC: 0.93666 cumulative IPC: 0.93106 (Simulation time: 0 hr 0 min 59 sec) 
Heartbeat CPU  0 instructions:   44000000 cycles:   47303737 heartbeat IPC: 0.89289 cumulative IPC: 0.93016 (Simulation time: 0 hr 1 min 0 sec) 
Heartbeat CPU  0 instructions:   45000001 cycles:   48337483 heartbeat IPC: 0.96736 cumulative IPC: 0.93095 (Simulation time: 0 hr 1 min 2 sec) 
Heartbeat CPU  0 instructions:   46000000 cycles:   49423935 heartbeat IPC: 0.92043 cumulative IPC: 0.93072 (Simulation time: 0 hr 1 min 3 sec) 
Heartbeat CPU  0 instructions:   47000003 cycles:   50532252 heartbeat IPC: 0.90227 cumulative IPC: 0.93010 (Simulation time: 0 hr 1 min 5 sec) 
Heartbeat CPU  0 instructions:   48000000 cycles:   51501490 heartbeat IPC: 1.03174 cumulative IPC: 0.93201 (Simulation time: 0 hr 1 min 6 sec) 
Heartbeat CPU  0 instructions:   49000000 cycles:   52616056 heartbeat IPC: 0.89721 cumulative IPC: 0.93127 (Simulation time: 0 hr 1 min 7 sec) 
Heartbeat CPU  0 instructions:   50000000 cycles:   53700125 heartbeat IPC: 0.92245 cumulative IPC: 0.93110 (Simulation time: 0 hr 1 min 9 sec) 
Heartbeat CPU  0 instructions:   51000001 cycles:   54767502 heartbeat IPC: 0.93688 cumulative IPC: 0.93121 (Simulation time: 0 hr 1 min 10 sec) 
Heartbeat CPU  0 instructions:   52000000 cycles:   55897224 heartbeat IPC: 0.88517 cumulative IPC: 0.93028 (Simulation time: 0 hr 1 min 11 sec) 
Heartbeat CPU  0 instructions:   53000000 cycles:   57003812 heartbeat IPC: 0.90368 cumulative IPC: 0.92976 (Simulation time: 0 hr 1 min 13 sec) 
Heartbeat CPU  0 instructions:   54000001 cycles:   58200480 heartbeat IPC: 0.83565 cumulative IPC: 0.92783 (Simulation time: 0 hr 1 min 14 sec) 
Heartbeat CPU  0 instructions:   55000002 cycles:   59320192 heartbeat IPC: 0.89309 cumulative IPC: 0.92717 (Simulation time: 0 hr 1 min 16 sec) 
Heartbeat CPU  0 instructions:   56000000 cycles:   60386056 heartbeat IPC: 0.93820 cumulative IPC: 0.92737 (Simulation time: 0 hr 1 min 17 sec) 
Heartbeat CPU  0 instructions:   57000000 cycles:   61474124 heartbeat IPC: 0.91906 cumulative IPC: 0.92722 (Simulation time: 0 hr 1 min 18 sec) 
Heartbeat CPU  0 instructions:   58000001 cycles:   62563421 heartbeat IPC: 0.91802 cumulative IPC: 0.92706 (Simulation time: 0 hr 1 min 20 sec) 
Heartbeat CPU  0 instructions:   59000000 cycles:   63438160 heartbeat IPC: 1.14320 cumulative IPC: 0.93004 (Simulation time: 0 hr 1 min 21 sec) 
Heartbeat CPU  0 instructions:   60000000 cycles:   64557188 heartbeat IPC: 0.89363 cumulative IPC: 0.92941 (Simulation time: 0 hr 1 min 22 sec) 
Heartbeat CPU  0 instructions:   61000000 cycles:   65653480 heartbeat IPC: 0.91217 cumulative IPC: 0.92912 (Simulation time: 0 hr 1 min 24 sec) 
Heartbeat CPU  0 instructions:   62000000 cycles:   66731791 heartbeat IPC: 0.92738 cumulative IPC: 0.92909 (Simulation time: 0 hr 1 min 25 sec) 
Heartbeat CPU  0 instructions:   63000001 cycles:   67749194 heartbeat IPC: 0.98290 cumulative IPC: 0.92990 (Simulation time: 0 hr 1 min 27 sec) 
Heartbeat CPU  0 instructions:   64000000 cycles:   68871709 heartbeat IPC: 0.89086 cumulative IPC: 0.92926 (Simulation time: 0 hr 1 min 28 sec) 
Heartbeat CPU  0 instructions:   65000000 cycles:   69947117 heartbeat IPC: 0.92988 cumulative IPC: 0.92927 (Simulation time: 0 hr 1 min 29 sec) 
Heartbeat CPU  0 instructions:   66000000 cycles:   71003999 heartbeat IPC: 0.94618 cumulative IPC: 0.92953 (Simulation time: 0 hr 1 min 31 sec) 
Heartbeat CPU  0 instructions:   67000000 cycles:   72117566 heartbeat IPC: 0.89802 cumulative IPC: 0.92904 (Simulation time: 0 hr 1 min 32 sec) 
Heartbeat CPU  0 instructions:   68000000 cycles:   73206019 heartbeat IPC: 0.91874 cumulative IPC: 0.92889 (Simulation time: 0 hr 1 min 34 sec) 
Heartbeat CPU  0 instructions:   69000001 cycles:   74314681 heartbeat IPC: 0.90199 cumulative IPC: 0.92848 (Simulation time: 0 hr 1 min 35 sec) 
Heartbeat CPU  0 instructions:   70000000 cycles:   75287621 heartbeat IPC: 1.02781 cumulative IPC: 0.92977 (Simulation time: 0 hr 1 min 36 sec) 
Heartbeat CPU  0 instructions:   71000000 cycles:   76202676 heartbeat IPC: 1.09283 cumulative IPC: 0.93173 (Simulation time: 0 hr 1 min 38 sec) 
Heartbeat CPU  0 instructions:   72000000 cycles:   77302224 heartbeat IPC: 0.90946 cumulative IPC: 0.93141 (Simulation time: 0 hr 1 min 39 sec) 
Heartbeat CPU  0 instructions:   73000001 cycles:   78364359 heartbeat IPC: 0.94150 cumulative IPC: 0.93155 (Simulation time: 0 hr 1 min 41 sec) 
Heartbeat CPU  0 instructions:   74000000 cycles:   79431226 heartbeat IPC: 0.93732 cumulative IPC: 0.93162 (Simulation time: 0 hr 1 min 42 sec) 
Heartbeat CPU  0 instructions:   75000001 cycles:   80373772 heartbeat IPC: 1.06096 cumulative IPC: 0.93314 (Simulation time: 0 hr 1 min 44 sec) 
Heartbeat CPU  0 instructions:   76000000 cycles:   81361815 heartbeat IPC: 1.01210 cumulative IPC: 0.93410 (Simulation time: 0 hr 1 min 45 sec) 
Heartbeat CPU  0 instructions:   77000002 cycles:   82403460 heartbeat IPC: 0.96002 cumulative IPC: 0.93443 (Simulation time: 0 hr 1 min 46 sec) 
Heartbeat CPU  0 instructions:   78000000 cycles:   83354780 heartbeat IPC: 1.05117 cumulative IPC: 0.93576 (Simulation time: 0 hr 1 min 48 sec) 
Heartbeat CPU  0 instructions:   79000003 cycles:   84385471 heartbeat IPC: 0.97023 cumulative IPC: 0.93618 (Simulation time: 0 hr 1 min 49 sec) 
Heartbeat CPU  0 instructions:   80000000 cycles:   85451917 heartbeat IPC: 0.93769 cumulative IPC: 0.93620 (Simulation time: 0 hr 1 min 51 sec) 
Heartbeat CPU  0 instructions:   81000003 cycles:   86540407 heartbeat IPC: 0.91871 cumulative IPC: 0.93598 (Simulation time: 0 hr 1 min 52 sec) 
Heartbeat CPU  0 instructions:   82000000 cycles:   87615393 heartbeat IPC: 0.93024 cumulative IPC: 0.93591 (Simulation time: 0 hr 1 min 54 sec) 
Heartbeat CPU  0 instructions:   83000001 cycles:   88714619 heartbeat IPC: 0.90973 cumulative IPC: 0.93558 (Simulation time: 0 hr 1 min 55 sec) 
Heartbeat CPU  0 instructions:   84000000 cycles:   89753625 heartbeat IPC: 0.96246 cumulative IPC: 0.93590 (Simulation time: 0 hr 1 min 56 sec) 
Heartbeat CPU  0 instructions:   85000000 cycles:   90753305 heartbeat IPC: 1.00032 cumulative IPC: 0.93661 (Simulation time: 0 hr 1 min 58 sec) 
Heartbeat CPU  0 instructions:   86000000 cycles:   91839468 heartbeat IPC: 0.92067 cumulative IPC: 0.93642 (Simulation time: 0 hr 1 min 59 sec) 
Heartbeat CPU  0 instructions:   87000002 cycles:   92926293 heartbeat IPC: 0.92011 cumulative IPC: 0.93623 (Simulation time: 0 hr 2 min 1 sec) 
Heartbeat CPU  0 instructions:   88000000 cycles:   93996482 heartbeat IPC: 0.93441 cumulative IPC: 0.93621 (Simulation time: 0 hr 2 min 2 sec) 
Heartbeat CPU  0 instructions:   89000002 cycles:   95095848 heartbeat IPC: 0.90962 cumulative IPC: 0.93590 (Simulation time: 0 hr 2 min 3 sec) 
Heartbeat CPU  0 instructions:   90000002 cycles:   96183251 heartbeat IPC: 0.91962 cumulative IPC: 0.93571 (Simulation time: 0 hr 2 min 5 sec) 
Heartbeat CPU  0 instructions:   91000001 cycles:   97249754 heartbeat IPC: 0.93764 cumulative IPC: 0.93574 (Simulation time: 0 hr 2 min 6 sec) 
Heartbeat CPU  0 instructions:   92000000 cycles:   98368550 heartbeat IPC: 0.89382 cumulative IPC: 0.93526 (Simulation time: 0 hr 2 min 8 sec) 
Heartbeat CPU  0 instructions:   93000000 cycles:   99407910 heartbeat IPC: 0.96213 cumulative IPC: 0.93554 (Simulation time: 0 hr 2 min 9 sec) 
Heartbeat CPU  0 instructions:   94000001 cycles:  100526176 heartbeat IPC: 0.89424 cumulative IPC: 0.93508 (Simulation time: 0 hr 2 min 10 sec) 
Heartbeat CPU  0 instructions:   95000001 cycles:  101618218 heartbeat IPC: 0.91572 cumulative IPC: 0.93487 (Simulation time: 0 hr 2 min 12 sec) 
Heartbeat CPU  0 instructions:   96000000 cycles:  102708007 heartbeat IPC: 0.91761 cumulative IPC: 0.93469 (Simulation time: 0 hr 2 min 13 sec) 
Heartbeat CPU  0 instructions:   97000001 cycles:  103836286 heartbeat IPC: 0.88631 cumulative IPC: 0.93416 (Simulation time: 0 hr 2 min 15 sec) 
Heartbeat CPU  0 instructions:   98000000 cycles:  104935037 heartbeat IPC: 0.91012 cumulative IPC: 0.93391 (Simulation time: 0 hr 2 min 16 sec) 
Heartbeat CPU  0 instructions:   99000003 cycles:  106006636 heartbeat IPC: 0.93319 cumulative IPC: 0.93390 (Simulation time: 0 hr 2 min 17 sec) 
Heartbeat CPU  0 instructions:  100000000 cycles:  107092208 heartbeat IPC: 0.92117 cumulative IPC: 0.93377 (Simulation time: 0 hr 2 min 19 sec) 

Warmup complete CPU  0 instructions:  100000001 cycles:  107092210 (Simulation time: 0 hr 2 min 19 sec) 

Heartbeat CPU  0 instructions:  101000000 cycles:  109769225 heartbeat IPC: 0.37355 cumulative IPC: 0.37355 (Simulation time: 0 hr 2 min 21 sec) 
Heartbeat CPU  0 instructions:  102000000 cycles:  112424235 heartbeat IPC: 0.37665 cumulative IPC: 0.37509 (Simulation time: 0 hr 2 min 23 sec) 
Heartbeat CPU  0 instructions:  103000000 cycles:  115082888 heartbeat IPC: 0.37613 cumulative IPC: 0.37544 (Simulation time: 0 hr 2 min 25 sec) 
Heartbeat CPU  0 instructions:  104000000 cycles:  117647340 heartbeat IPC: 0.38995 cumulative IPC: 0.37896 (Simulation time: 0 hr 2 min 28 sec) 
Heartbeat CPU  0 instructions:  105000003 cycles:  120386160 heartbeat IPC: 0.36512 cumulative IPC: 0.37611 (Simulation time: 0 hr 2 min 30 sec) 
Heartbeat CPU  0 instructions:  106000001 cycles:  123083078 heartbeat IPC: 0.37079 cumulative IPC: 0.37521 (Simulation time: 0 hr 2 min 32 sec) 
Heartbeat CPU  0 instructions:  107000003 cycles:  125784082 heartbeat IPC: 0.37023 cumulative IPC: 0.37449 (Simulation time: 0 hr 2 min 34 sec) 
Heartbeat CPU  0 instructions:  108000000 cycles:  128609434 heartbeat IPC: 0.35394 cumulative IPC: 0.37180 (Simulation time: 0 hr 2 min 37 sec) 
Heartbeat CPU  0 instructions:  109000000 cycles:  131405220 heartbeat IPC: 0.35768 cumulative IPC: 0.37017 (Simulation time: 0 hr 2 min 39 sec) 
Heartbeat CPU  0 instructions:  110000002 cycles:  134084812 heartbeat IPC: 0.37319 cumulative IPC: 0.37047 (Simulation time: 0 hr 2 min 41 sec) 
Heartbeat CPU  0 instructions:  111000002 cycles:  136665752 heartbeat IPC: 0.38746 cumulative IPC: 0.37195 (Simulation time: 0 hr 2 min 43 sec) 
Heartbeat CPU  0 instructions:  112000000 cycles:  139422055 heartbeat IPC: 0.36280 cumulative IPC: 0.37117 (Simulation time: 0 hr 2 min 46 sec) 
Heartbeat CPU  0 instructions:  113000001 cycles:  142281383 heartbeat IPC: 0.34973 cumulative IPC: 0.36943 (Simulation time: 0 hr 2 min 48 sec) 
Heartbeat CPU  0 instructions:  114000000 cycles:  145106642 heartbeat IPC: 0.35395 cumulative IPC: 0.36828 (Simulation time: 0 hr 2 min 50 sec) 
Heartbeat CPU  0 instructions:  115000000 cycles:  147823145 heartbeat IPC: 0.36812 cumulative IPC: 0.36827 (Simulation time: 0 hr 2 min 52 sec) 
Heartbeat CPU  0 instructions:  116000000 cycles:  150593325 heartbeat IPC: 0.36099 cumulative IPC: 0.36781 (Simulation time: 0 hr 2 min 55 sec) 
Heartbeat CPU  0 instructions:  117000002 cycles:  153326049 heartbeat IPC: 0.36594 cumulative IPC: 0.36770 (Simulation time: 0 hr 2 min 57 sec) 
Heartbeat CPU  0 instructions:  118000000 cycles:  156074909 heartbeat IPC: 0.36379 cumulative IPC: 0.36748 (Simulation time: 0 hr 2 min 59 sec) 
Heartbeat CPU  0 instructions:  119000000 cycles:  158833449 heartbeat IPC: 0.36251 cumulative IPC: 0.36721 (Simulation time: 0 hr 3 min 2 sec) 
Heartbeat CPU  0 instructions:  120000000 cycles:  161669971 heartbeat IPC: 0.35254 cumulative IPC: 0.36645 (Simulation time: 0 hr 3 min 4 sec) 
Heartbeat CPU  0 instructions:  121000000 cycles:  164385159 heartbeat IPC: 0.36830 cumulative IPC: 0.36654 (Simulation time: 0 hr 3 min 6 sec) 
Heartbeat CPU  0 instructions:  122000001 cycles:  167132058 heartbeat IPC: 0.36405 cumulative IPC: 0.36642 (Simulation time: 0 hr 3 min 8 sec) 
Heartbeat CPU  0 instructions:  123000001 cycles:  169825098 heartbeat IPC: 0.37133 cumulative IPC: 0.36663 (Simulation time: 0 hr 3 min 10 sec) 
Heartbeat CPU  0 instructions:  124000000 cycles:  172466748 heartbeat IPC: 0.37855 cumulative IPC: 0.36712 (Simulation time: 0 hr 3 min 13 sec) 
Heartbeat CPU  0 instructions:  125000003 cycles:  175099254 heartbeat IPC: 0.37987 cumulative IPC: 0.36761 (Simulation time: 0 hr 3 min 15 sec) 
Heartbeat CPU  0 instructions:  126000000 cycles:  177755464 heartbeat IPC: 0.37648 cumulative IPC: 0.36794 (Simulation time: 0 hr 3 min 17 sec) 
Heartbeat CPU  0 instructions:  127000001 cycles:  180621350 heartbeat IPC: 0.34893 cumulative IPC: 0.36720 (Simulation time: 0 hr 3 min 19 sec) 
Heartbeat CPU  0 instructions:  128000000 cycles:  183331360 heartbeat IPC: 0.36900 cumulative IPC: 0.36727 (Simulation time: 0 hr 3 min 22 sec) 
Heartbeat CPU  0 instructions:  129000001 cycles:  186181722 heartbeat IPC: 0.35083 cumulative IPC: 0.36667 (Simulation time: 0 hr 3 min 24 sec) 
Heartbeat CPU  0 instructions:  130000000 cycles:  189035337 heartbeat IPC: 0.35043 cumulative IPC: 0.36611 (Simulation time: 0 hr 3 min 26 sec) 
Heartbeat CPU  0 instructions:  131000000 cycles:  191782088 heartbeat IPC: 0.36407 cumulative IPC: 0.36604 (Simulation time: 0 hr 3 min 28 sec) 
Heartbeat CPU  0 instructions:  132000000 cycles:  194538037 heartbeat IPC: 0.36285 cumulative IPC: 0.36594 (Simulation time: 0 hr 3 min 31 sec) 
Heartbeat CPU  0 instructions:  133000001 cycles:  197251661 heartbeat IPC: 0.36851 cumulative IPC: 0.36602 (Simulation time: 0 hr 3 min 33 sec) 
Heartbeat CPU  0 instructions:  134000000 cycles:  200008172 heartbeat IPC: 0.36278 cumulative IPC: 0.36592 (Simulation time: 0 hr 3 min 35 sec) 
Heartbeat CPU  0 instructions:  135000000 cycles:  202794352 heartbeat IPC: 0.35891 cumulative IPC: 0.36572 (Simulation time: 0 hr 3 min 38 sec) 
Heartbeat CPU  0 instructions:  136000000 cycles:  205571785 heartbeat IPC: 0.36004 cumulative IPC: 0.36556 (Simulation time: 0 hr 3 min 40 sec) 
Heartbeat CPU  0 instructions:  137000000 cycles:  208305512 heartbeat IPC: 0.36580 cumulative IPC: 0.36556 (Simulation time: 0 hr 3 min 42 sec) 
Heartbeat CPU  0 instructions:  138000000 cycles:  210899341 heartbeat IPC: 0.38553 cumulative IPC: 0.36606 (Simulation time: 0 hr 3 min 44 sec) 
Heartbeat CPU  0 instructions:  139000002 cycles:  213561671 heartbeat IPC: 0.37561 cumulative IPC: 0.36630 (Simulation time: 0 hr 3 min 46 sec) 
Heartbeat CPU  0 instructions:  140000000 cycles:  216301810 heartbeat IPC: 0.36494 cumulative IPC: 0.36627 (Simulation time: 0 hr 3 min 49 sec) 
Heartbeat CPU  0 instructions:  141000003 cycles:  219036109 heartbeat IPC: 0.36573 cumulative IPC: 0.36625 (Simulation time: 0 hr 3 min 51 sec) 
Heartbeat CPU  0 instructions:  142000000 cycles:  221709223 heartbeat IPC: 0.37409 cumulative IPC: 0.36644 (Simulation time: 0 hr 3 min 53 sec) 
Heartbeat CPU  0 instructions:  143000001 cycles:  224361473 heartbeat IPC: 0.37704 cumulative IPC: 0.36668 (Simulation time: 0 hr 3 min 55 sec) 
Heartbeat CPU  0 instructions:  144000000 cycles:  225926682 heartbeat IPC: 0.63889 cumulative IPC: 0.37026 (Simulation time: 0 hr 3 min 58 sec) 
Heartbeat CPU  0 instructions:  145000002 cycles:  226900000 heartbeat IPC: 1.02742 cumulative IPC: 0.37560 (Simulation time: 0 hr 4 min 0 sec) 
Heartbeat CPU  0 instructions:  146000000 cycles:  227898251 heartbeat IPC: 1.00175 cumulative IPC: 0.38078 (Simulation time: 0 hr 4 min 3 sec) 
Heartbeat CPU  0 instructions:  147000000 cycles:  228909814 heartbeat IPC: 0.98857 cumulative IPC: 0.38582 (Simulation time: 0 hr 4 min 5 sec) 
Heartbeat CPU  0 instructions:  148000000 cycles:  230046707 heartbeat IPC: 0.87959 cumulative IPC: 0.39039 (Simulation time: 0 hr 4 min 8 sec) 
Heartbeat CPU  0 instructions:  149000000 cycles:  232052410 heartbeat IPC: 0.49858 cumulative IPC: 0.39212 (Simulation time: 0 hr 4 min 11 sec) 
Heartbeat CPU  0 instructions:  150000001 cycles:  234231986 heartbeat IPC: 0.45881 cumulative IPC: 0.39327 (Simulation time: 0 hr 4 min 15 sec) 
Heartbeat CPU  0 instructions:  151000001 cycles:  236530604 heartbeat IPC: 0.43504 cumulative IPC: 0.39401 (Simulation time: 0 hr 4 min 18 sec) 
Heartbeat CPU  0 instructions:  152000000 cycles:  239320129 heartbeat IPC: 0.35848 cumulative IPC: 0.39326 (Simulation time: 0 hr 4 min 22 sec) 
Heartbeat CPU  0 instructions:  153000000 cycles:  242596297 heartbeat IPC: 0.30523 cumulative IPC: 0.39113 (Simulation time: 0 hr 4 min 27 sec) 
Heartbeat CPU  0 instructions:  154000003 cycles:  246035420 heartbeat IPC: 0.29077 cumulative IPC: 0.38865 (Simulation time: 0 hr 4 min 31 sec) 
Heartbeat CPU  0 instructions:  155000003 cycles:  247697020 heartbeat IPC: 0.60183 cumulative IPC: 0.39117 (Simulation time: 0 hr 4 min 34 sec) 
Heartbeat CPU  0 instructions:  156000000 cycles:  248840164 heartbeat IPC: 0.87478 cumulative IPC: 0.39507 (Simulation time: 0 hr 4 min 37 sec) 
Heartbeat CPU  0 instructions:  157000001 cycles:  249974237 heartbeat IPC: 0.88178 cumulative IPC: 0.39893 (Simulation time: 0 hr 4 min 40 sec) 
Heartbeat CPU  0 instructions:  158000003 cycles:  251175198 heartbeat IPC: 0.83267 cumulative IPC: 0.40255 (Simulation time: 0 hr 4 min 42 sec) 
Heartbeat CPU  0 instructions:  159000002 cycles:  253499037 heartbeat IPC: 0.43032 cumulative IPC: 0.40299 (Simulation time: 0 hr 4 min 46 sec) 
Heartbeat CPU  0 instructions:  160000000 cycles:  255795459 heartbeat IPC: 0.43546 cumulative IPC: 0.40349 (Simulation time: 0 hr 4 min 49 sec) 
Heartbeat CPU  0 instructions:  161000002 cycles:  258103705 heartbeat IPC: 0.43323 cumulative IPC: 0.40394 (Simulation time: 0 hr 4 min 53 sec) 
Heartbeat CPU  0 instructions:  162000000 cycles:  261208365 heartbeat IPC: 0.32210 cumulative IPC: 0.40229 (Simulation time: 0 hr 4 min 57 sec) 
Heartbeat CPU  0 instructions:  163000002 cycles:  264564847 heartbeat IPC: 0.29793 cumulative IPC: 0.40007 (Simulation time: 0 hr 5 min 2 sec) 
Heartbeat CPU  0 instructions:  164000000 cycles:  267654959 heartbeat IPC: 0.32361 cumulative IPC: 0.39860 (Simulation time: 0 hr 5 min 6 sec) 
Heartbeat CPU  0 instructions:  165000003 cycles:  270286276 heartbeat IPC: 0.38004 cumulative IPC: 0.39830 (Simulation time: 0 hr 5 min 8 sec) 
Heartbeat CPU  0 instructions:  166000000 cycles:  273121765 heartbeat IPC: 0.35267 cumulative IPC: 0.39752 (Simulation time: 0 hr 5 min 10 sec) 
Heartbeat CPU  0 instructions:  167000002 cycles:  275908244 heartbeat IPC: 0.35888 cumulative IPC: 0.39688 (Simulation time: 0 hr 5 min 13 sec) 
Heartbeat CPU  0 instructions:  168000000 cycles:  278688255 heartbeat IPC: 0.35971 cumulative IPC: 0.39628 (Simulation time: 0 hr 5 min 15 sec) 
Heartbeat CPU  0 instructions:  169000000 cycles:  281501831 heartbeat IPC: 0.35542 cumulative IPC: 0.39562 (Simulation time: 0 hr 5 min 17 sec) 
Heartbeat CPU  0 instructions:  170000003 cycles:  284289783 heartbeat IPC: 0.35869 cumulative IPC: 0.39504 (Simulation time: 0 hr 5 min 19 sec) 
Heartbeat CPU  0 instructions:  171000000 cycles:  286999774 heartbeat IPC: 0.36900 cumulative IPC: 0.39465 (Simulation time: 0 hr 5 min 22 sec) 
Heartbeat CPU  0 instructions:  172000000 cycles:  289780014 heartbeat IPC: 0.35968 cumulative IPC: 0.39411 (Simulation time: 0 hr 5 min 24 sec) 
Heartbeat CPU  0 instructions:  173000000 cycles:  292475939 heartbeat IPC: 0.37093 cumulative IPC: 0.39378 (Simulation time: 0 hr 5 min 26 sec) 
Heartbeat CPU  0 instructions:  174000000 cycles:  295260550 heartbeat IPC: 0.35912 cumulative IPC: 0.39326 (Simulation time: 0 hr 5 min 28 sec) 
Heartbeat CPU  0 instructions:  175000001 cycles:  298038432 heartbeat IPC: 0.35999 cumulative IPC: 0.39278 (Simulation time: 0 hr 5 min 31 sec) 
Heartbeat CPU  0 instructions:  176000000 cycles:  300826162 heartbeat IPC: 0.35871 cumulative IPC: 0.39229 (Simulation time: 0 hr 5 min 33 sec) 
Heartbeat CPU  0 instructions:  177000000 cycles:  303613663 heartbeat IPC: 0.35874 cumulative IPC: 0.39181 (Simulation time: 0 hr 5 min 35 sec) 
Heartbeat CPU  0 instructions:  178000001 cycles:  306339323 heartbeat IPC: 0.36688 cumulative IPC: 0.39147 (Simulation time: 0 hr 5 min 37 sec) 
Heartbeat CPU  0 instructions:  179000003 cycles:  308958179 heartbeat IPC: 0.38185 cumulative IPC: 0.39135 (Simulation time: 0 hr 5 min 40 sec) 
Heartbeat CPU  0 instructions:  180000000 cycles:  311709349 heartbeat IPC: 0.36348 cumulative IPC: 0.39097 (Simulation time: 0 hr 5 min 42 sec) 
Heartbeat CPU  0 instructions:  181000000 cycles:  314198403 heartbeat IPC: 0.40176 cumulative IPC: 0.39110 (Simulation time: 0 hr 5 min 44 sec) 
Heartbeat CPU  0 instructions:  182000000 cycles:  316885955 heartbeat IPC: 0.37209 cumulative IPC: 0.39086 (Simulation time: 0 hr 5 min 46 sec) 
Heartbeat CPU  0 instructions:  183000000 cycles:  319471501 heartbeat IPC: 0.38677 cumulative IPC: 0.39081 (Simulation time: 0 hr 5 min 48 sec) 
Heartbeat CPU  0 instructions:  184000000 cycles:  321953116 heartbeat IPC: 0.40296 cumulative IPC: 0.39095 (Simulation time: 0 hr 5 min 51 sec) 
Heartbeat CPU  0 instructions:  185000000 cycles:  324573985 heartbeat IPC: 0.38155 cumulative IPC: 0.39084 (Simulation time: 0 hr 5 min 53 sec) 
Heartbeat CPU  0 instructions:  186000000 cycles:  327283865 heartbeat IPC: 0.36902 cumulative IPC: 0.39057 (Simulation time: 0 hr 5 min 55 sec) 
Heartbeat CPU  0 instructions:  187000000 cycles:  329869260 heartbeat IPC: 0.38679 cumulative IPC: 0.39052 (Simulation time: 0 hr 5 min 57 sec) 
Heartbeat CPU  0 instructions:  188000000 cycles:  332267863 heartbeat IPC: 0.41691 cumulative IPC: 0.39081 (Simulation time: 0 hr 5 min 59 sec) 
Heartbeat CPU  0 instructions:  189000000 cycles:  334912307 heartbeat IPC: 0.37815 cumulative IPC: 0.39066 (Simulation time: 0 hr 6 min 2 sec) 
Heartbeat CPU  0 instructions:  190000000 cycles:  337476711 heartbeat IPC: 0.38995 cumulative IPC: 0.39065 (Simulation time: 0 hr 6 min 4 sec) 
Heartbeat CPU  0 instructions:  191000001 cycles:  340103110 heartbeat IPC: 0.38075 cumulative IPC: 0.39054 (Simulation time: 0 hr 6 min 6 sec) 
Heartbeat CPU  0 instructions:  192000000 cycles:  342700458 heartbeat IPC: 0.38501 cumulative IPC: 0.39048 (Simulation time: 0 hr 6 min 9 sec) 
Heartbeat CPU  0 instructions:  193000001 cycles:  345249382 heartbeat IPC: 0.39232 cumulative IPC: 0.39050 (Simulation time: 0 hr 6 min 11 sec) 
Heartbeat CPU  0 instructions:  194000000 cycles:  347295303 heartbeat IPC: 0.48878 cumulative IPC: 0.39134 (Simulation time: 0 hr 6 min 13 sec) 
Heartbeat CPU  0 instructions:  195000000 cycles:  349927148 heartbeat IPC: 0.37996 cumulative IPC: 0.39121 (Simulation time: 0 hr 6 min 15 sec) 
Heartbeat CPU  0 instructions:  196000000 cycles:  352548988 heartbeat IPC: 0.38141 cumulative IPC: 0.39111 (Simulation time: 0 hr 6 min 17 sec) 
Heartbeat CPU  0 instructions:  197000002 cycles:  355114266 heartbeat IPC: 0.38982 cumulative IPC: 0.39109 (Simulation time: 0 hr 6 min 19 sec) 
Heartbeat CPU  0 instructions:  198000000 cycles:  357645288 heartbeat IPC: 0.39510 cumulative IPC: 0.39113 (Simulation time: 0 hr 6 min 22 sec) 
Heartbeat CPU  0 instructions:  199000000 cycles:  360167519 heartbeat IPC: 0.39647 cumulative IPC: 0.39119 (Simulation time: 0 hr 6 min 24 sec) 
Heartbeat CPU  0 instructions:  200000000 cycles:  362745491 heartbeat IPC: 0.38790 cumulative IPC: 0.39115 (Simulation time: 0 hr 6 min 26 sec) 
Heartbeat CPU  0 instructions:  201000002 cycles:  365422833 heartbeat IPC: 0.37351 cumulative IPC: 0.39097 (Simulation time: 0 hr 6 min 28 sec) 
Heartbeat CPU  0 instructions:  202000001 cycles:  368134459 heartbeat IPC: 0.36878 cumulative IPC: 0.39074 (Simulation time: 0 hr 6 min 31 sec) 
Heartbeat CPU  0 instructions:  203000000 cycles:  370721259 heartbeat IPC: 0.38658 cumulative IPC: 0.39070 (Simulation time: 0 hr 6 min 33 sec) 
Heartbeat CPU  0 instructions:  204000000 cycles:  373258267 heartbeat IPC: 0.39417 cumulative IPC: 0.39073 (Simulation time: 0 hr 6 min 35 sec) 
Heartbeat CPU  0 instructions:  205000002 cycles:  375887885 heartbeat IPC: 0.38028 cumulative IPC: 0.39063 (Simulation time: 0 hr 6 min 37 sec) 
Heartbeat CPU  0 instructions:  206000001 cycles:  378425449 heartbeat IPC: 0.39408 cumulative IPC: 0.39066 (Simulation time: 0 hr 6 min 39 sec) 
Heartbeat CPU  0 instructions:  207000000 cycles:  381006798 heartbeat IPC: 0.38739 cumulative IPC: 0.39063 (Simulation time: 0 hr 6 min 42 sec) 
Heartbeat CPU  0 instructions:  208000000 cycles:  383829328 heartbeat IPC: 0.35429 cumulative IPC: 0.39026 (Simulation time: 0 hr 6 min 44 sec) 
Heartbeat CPU  0 instructions:  209000003 cycles:  386664472 heartbeat IPC: 0.35272 cumulative IPC: 0.38988 (Simulation time: 0 hr 6 min 46 sec) 
Heartbeat CPU  0 instructions:  210000000 cycles:  389276099 heartbeat IPC: 0.38290 cumulative IPC: 0.38982 (Simulation time: 0 hr 6 min 49 sec) 
Heartbeat CPU  0 instructions:  211000000 cycles:  392146851 heartbeat IPC: 0.34834 cumulative IPC: 0.38940 (Simulation time: 0 hr 6 min 51 sec) 
Heartbeat CPU  0 instructions:  212000000 cycles:  394852078 heartbeat IPC: 0.36965 cumulative IPC: 0.38921 (Simulation time: 0 hr 6 min 53 sec) 
Heartbeat CPU  0 instructions:  213000002 cycles:  397602226 heartbeat IPC: 0.36362 cumulative IPC: 0.38897 (Simulation time: 0 hr 6 min 55 sec) 
Heartbeat CPU  0 instructions:  214000000 cycles:  400417234 heartbeat IPC: 0.35524 cumulative IPC: 0.38865 (Simulation time: 0 hr 6 min 58 sec) 
Heartbeat CPU  0 instructions:  215000001 cycles:  403215674 heartbeat IPC: 0.35734 cumulative IPC: 0.38835 (Simulation time: 0 hr 7 min 0 sec) 
Heartbeat CPU  0 instructions:  216000000 cycles:  405991973 heartbeat IPC: 0.36019 cumulative IPC: 0.38809 (Simulation time: 0 hr 7 min 2 sec) 
Heartbeat CPU  0 instructions:  217000000 cycles:  408780527 heartbeat IPC: 0.35861 cumulative IPC: 0.38782 (Simulation time: 0 hr 7 min 4 sec) 
Heartbeat CPU  0 instructions:  218000002 cycles:  411570901 heartbeat IPC: 0.35838 cumulative IPC: 0.38755 (Simulation time: 0 hr 7 min 7 sec) 
Heartbeat CPU  0 instructions:  219000000 cycles:  414337706 heartbeat IPC: 0.36143 cumulative IPC: 0.38731 (Simulation time: 0 hr 7 min 9 sec) 
Heartbeat CPU  0 instructions:  220000000 cycles:  417081658 heartbeat IPC: 0.36444 cumulative IPC: 0.38711 (Simulation time: 0 hr 7 min 11 sec) 
Heartbeat CPU  0 instructions:  221000003 cycles:  419894005 heartbeat IPC: 0.35558 cumulative IPC: 0.38683 (Simulation time: 0 hr 7 min 13 sec) 
Heartbeat CPU  0 instructions:  222000003 cycles:  422680442 heartbeat IPC: 0.35888 cumulative IPC: 0.38658 (Simulation time: 0 hr 7 min 16 sec) 
Heartbeat CPU  0 instructions:  223000000 cycles:  425410990 heartbeat IPC: 0.36623 cumulative IPC: 0.38641 (Simulation time: 0 hr 7 min 18 sec) 
Heartbeat CPU  0 instructions:  224000000 cycles:  428127368 heartbeat IPC: 0.36814 cumulative IPC: 0.38625 (Simulation time: 0 hr 7 min 20 sec) 
Heartbeat CPU  0 instructions:  225000000 cycles:  430766443 heartbeat IPC: 0.37892 cumulative IPC: 0.38619 (Simulation time: 0 hr 7 min 22 sec) 
Heartbeat CPU  0 instructions:  226000002 cycles:  433506422 heartbeat IPC: 0.36497 cumulative IPC: 0.38601 (Simulation time: 0 hr 7 min 25 sec) 
Heartbeat CPU  0 instructions:  227000000 cycles:  436246469 heartbeat IPC: 0.36496 cumulative IPC: 0.38584 (Simulation time: 0 hr 7 min 27 sec) 
Heartbeat CPU  0 instructions:  228000000 cycles:  438940310 heartbeat IPC: 0.37122 cumulative IPC: 0.38572 (Simulation time: 0 hr 7 min 29 sec) 
Heartbeat CPU  0 instructions:  229000003 cycles:  441746876 heartbeat IPC: 0.35631 cumulative IPC: 0.38547 (Simulation time: 0 hr 7 min 31 sec) 
Heartbeat CPU  0 instructions:  230000003 cycles:  444542156 heartbeat IPC: 0.35775 cumulative IPC: 0.38524 (Simulation time: 0 hr 7 min 34 sec) 
Heartbeat CPU  0 instructions:  231000000 cycles:  447330094 heartbeat IPC: 0.35869 cumulative IPC: 0.38502 (Simulation time: 0 hr 7 min 36 sec) 
Heartbeat CPU  0 instructions:  232000000 cycles:  450051629 heartbeat IPC: 0.36744 cumulative IPC: 0.38489 (Simulation time: 0 hr 7 min 38 sec) 
Heartbeat CPU  0 instructions:  233000001 cycles:  452790073 heartbeat IPC: 0.36517 cumulative IPC: 0.38473 (Simulation time: 0 hr 7 min 40 sec) 
Heartbeat CPU  0 instructions:  234000000 cycles:  455528281 heartbeat IPC: 0.36520 cumulative IPC: 0.38458 (Simulation time: 0 hr 7 min 43 sec) 
Heartbeat CPU  0 instructions:  235000000 cycles:  458249310 heartbeat IPC: 0.36751 cumulative IPC: 0.38444 (Simulation time: 0 hr 7 min 45 sec) 
Heartbeat CPU  0 instructions:  236000000 cycles:  460721669 heartbeat IPC: 0.40447 cumulative IPC: 0.38458 (Simulation time: 0 hr 7 min 47 sec) 
Heartbeat CPU  0 instructions:  237000001 cycles:  463065997 heartbeat IPC: 0.42656 cumulative IPC: 0.38486 (Simulation time: 0 hr 7 min 49 sec) 
Heartbeat CPU  0 instructions:  238000000 cycles:  465616108 heartbeat IPC: 0.39214 cumulative IPC: 0.38491 (Simulation time: 0 hr 7 min 51 sec) 
Heartbeat CPU  0 instructions:  239000000 cycles:  468383888 heartbeat IPC: 0.36130 cumulative IPC: 0.38473 (Simulation time: 0 hr 7 min 54 sec) 
Heartbeat CPU  0 instructions:  240000000 cycles:  471057517 heartbeat IPC: 0.37402 cumulative IPC: 0.38465 (Simulation time: 0 hr 7 min 56 sec) 
Heartbeat CPU  0 instructions:  241000000 cycles:  473761324 heartbeat IPC: 0.36985 cumulative IPC: 0.38454 (Simulation time: 0 hr 7 min 58 sec) 
Heartbeat CPU  0 instructions:  242000003 cycles:  476597190 heartbeat IPC: 0.35263 cumulative IPC: 0.38430 (Simulation time: 0 hr 8 min 1 sec) 
Heartbeat CPU  0 instructions:  243000001 cycles:  479367130 heartbeat IPC: 0.36102 cumulative IPC: 0.38412 (Simulation time: 0 hr 8 min 3 sec) 
Heartbeat CPU  0 instructions:  244000000 cycles:  481981860 heartbeat IPC: 0.38245 cumulative IPC: 0.38411 (Simulation time: 0 hr 8 min 5 sec) 
Heartbeat CPU  0 instructions:  245000000 cycles:  484544186 heartbeat IPC: 0.39027 cumulative IPC: 0.38415 (Simulation time: 0 hr 8 min 7 sec) 
Heartbeat CPU  0 instructions:  246000001 cycles:  487285921 heartbeat IPC: 0.36473 cumulative IPC: 0.38401 (Simulation time: 0 hr 8 min 10 sec) 
Heartbeat CPU  0 instructions:  247000002 cycles:  489941300 heartbeat IPC: 0.37659 cumulative IPC: 0.38396 (Simulation time: 0 hr 8 min 12 sec) 
Heartbeat CPU  0 instructions:  248000000 cycles:  492529500 heartbeat IPC: 0.38637 cumulative IPC: 0.38398 (Simulation time: 0 hr 8 min 14 sec) 
Heartbeat CPU  0 instructions:  249000003 cycles:  495083517 heartbeat IPC: 0.39154 cumulative IPC: 0.38403 (Simulation time: 0 hr 8 min 16 sec) 
Heartbeat CPU  0 instructions:  250000000 cycles:  497486519 heartbeat IPC: 0.41614 cumulative IPC: 0.38423 (Simulation time: 0 hr 8 min 18 sec) 
Heartbeat CPU  0 instructions:  251000002 cycles:  500208613 heartbeat IPC: 0.36736 cumulative IPC: 0.38411 (Simulation time: 0 hr 8 min 21 sec) 
Heartbeat CPU  0 instructions:  252000000 cycles:  502920063 heartbeat IPC: 0.36881 cumulative IPC: 0.38401 (Simulation time: 0 hr 8 min 23 sec) 
Heartbeat CPU  0 instructions:  253000000 cycles:  505729552 heartbeat IPC: 0.35594 cumulative IPC: 0.38381 (Simulation time: 0 hr 8 min 25 sec) 
Heartbeat CPU  0 instructions:  254000002 cycles:  508454600 heartbeat IPC: 0.36697 cumulative IPC: 0.38369 (Simulation time: 0 hr 8 min 27 sec) 
Heartbeat CPU  0 instructions:  255000001 cycles:  511187379 heartbeat IPC: 0.36593 cumulative IPC: 0.38357 (Simulation time: 0 hr 8 min 30 sec) 
Heartbeat CPU  0 instructions:  256000000 cycles:  513922772 heartbeat IPC: 0.36558 cumulative IPC: 0.38345 (Simulation time: 0 hr 8 min 32 sec) 
Heartbeat CPU  0 instructions:  257000000 cycles:  516646256 heartbeat IPC: 0.36718 cumulative IPC: 0.38334 (Simulation time: 0 hr 8 min 34 sec) 
Heartbeat CPU  0 instructions:  258000000 cycles:  519360611 heartbeat IPC: 0.36841 cumulative IPC: 0.38325 (Simulation time: 0 hr 8 min 37 sec) 
Heartbeat CPU  0 instructions:  259000000 cycles:  521856290 heartbeat IPC: 0.40069 cumulative IPC: 0.38335 (Simulation time: 0 hr 8 min 39 sec) 
Heartbeat CPU  0 instructions:  260000000 cycles:  524536533 heartbeat IPC: 0.37310 cumulative IPC: 0.38328 (Simulation time: 0 hr 8 min 41 sec) 
Heartbeat CPU  0 instructions:  261000000 cycles:  527247867 heartbeat IPC: 0.36882 cumulative IPC: 0.38319 (Simulation time: 0 hr 8 min 43 sec) 
Heartbeat CPU  0 instructions:  262000000 cycles:  529978994 heartbeat IPC: 0.36615 cumulative IPC: 0.38308 (Simulation time: 0 hr 8 min 46 sec) 
Heartbeat CPU  0 instructions:  263000001 cycles:  532678402 heartbeat IPC: 0.37045 cumulative IPC: 0.38300 (Simulation time: 0 hr 8 min 48 sec) 
Heartbeat CPU  0 instructions:  264000000 cycles:  535312867 heartbeat IPC: 0.37958 cumulative IPC: 0.38298 (Simulation time: 0 hr 8 min 50 sec) 
Heartbeat CPU  0 instructions:  265000002 cycles:  537947652 heartbeat IPC: 0.37954 cumulative IPC: 0.38296 (Simulation time: 0 hr 8 min 52 sec) 
Heartbeat CPU  0 instructions:  266000002 cycles:  540598947 heartbeat IPC: 0.37717 cumulative IPC: 0.38292 (Simulation time: 0 hr 8 min 55 sec) 
Heartbeat CPU  0 instructions:  267000003 cycles:  543332559 heartbeat IPC: 0.36582 cumulative IPC: 0.38282 (Simulation time: 0 hr 8 min 57 sec) 
Heartbeat CPU  0 instructions:  268000000 cycles:  546078356 heartbeat IPC: 0.36419 cumulative IPC: 0.38270 (Simulation time: 0 hr 8 min 59 sec) 
Heartbeat CPU  0 instructions:  269000001 cycles:  548816205 heartbeat IPC: 0.36525 cumulative IPC: 0.38259 (Simulation time: 0 hr 9 min 1 sec) 
Heartbeat CPU  0 instructions:  270000001 cycles:  551521855 heartbeat IPC: 0.36960 cumulative IPC: 0.38251 (Simulation time: 0 hr 9 min 4 sec) 
Heartbeat CPU  0 instructions:  271000003 cycles:  554219361 heartbeat IPC: 0.37071 cumulative IPC: 0.38244 (Simulation time: 0 hr 9 min 6 sec) 
Heartbeat CPU  0 instructions:  272000000 cycles:  556946457 heartbeat IPC: 0.36669 cumulative IPC: 0.38235 (Simulation time: 0 hr 9 min 8 sec) 
Heartbeat CPU  0 instructions:  273000001 cycles:  559638278 heartbeat IPC: 0.37150 cumulative IPC: 0.38228 (Simulation time: 0 hr 9 min 10 sec) 
Heartbeat CPU  0 instructions:  274000003 cycles:  562420572 heartbeat IPC: 0.35942 cumulative IPC: 0.38214 (Simulation time: 0 hr 9 min 13 sec) 
Heartbeat CPU  0 instructions:  275000002 cycles:  565152732 heartbeat IPC: 0.36601 cumulative IPC: 0.38205 (Simulation time: 0 hr 9 min 15 sec) 
Heartbeat CPU  0 instructions:  276000000 cycles:  567814439 heartbeat IPC: 0.37570 cumulative IPC: 0.38201 (Simulation time: 0 hr 9 min 17 sec) 
Heartbeat CPU  0 instructions:  277000000 cycles:  570382902 heartbeat IPC: 0.38934 cumulative IPC: 0.38205 (Simulation time: 0 hr 9 min 19 sec) 
Heartbeat CPU  0 instructions:  278000001 cycles:  572873328 heartbeat IPC: 0.40154 cumulative IPC: 0.38215 (Simulation time: 0 hr 9 min 21 sec) 
Heartbeat CPU  0 instructions:  279000002 cycles:  575453271 heartbeat IPC: 0.38761 cumulative IPC: 0.38218 (Simulation time: 0 hr 9 min 24 sec) 
Heartbeat CPU  0 instructions:  280000000 cycles:  578160055 heartbeat IPC: 0.36944 cumulative IPC: 0.38211 (Simulation time: 0 hr 9 min 26 sec) 
Heartbeat CPU  0 instructions:  281000002 cycles:  580888718 heartbeat IPC: 0.36648 cumulative IPC: 0.38202 (Simulation time: 0 hr 9 min 28 sec) 
Heartbeat CPU  0 instructions:  282000003 cycles:  583527661 heartbeat IPC: 0.37894 cumulative IPC: 0.38200 (Simulation time: 0 hr 9 min 30 sec) 
Heartbeat CPU  0 instructions:  283000001 cycles:  585990139 heartbeat IPC: 0.40609 cumulative IPC: 0.38213 (Simulation time: 0 hr 9 min 33 sec) 
Heartbeat CPU  0 instructions:  284000000 cycles:  588601802 heartbeat IPC: 0.38290 cumulative IPC: 0.38213 (Simulation time: 0 hr 9 min 35 sec) 
Heartbeat CPU  0 instructions:  285000001 cycles:  591272857 heartbeat IPC: 0.37438 cumulative IPC: 0.38209 (Simulation time: 0 hr 9 min 37 sec) 
Heartbeat CPU  0 instructions:  286000000 cycles:  593761311 heartbeat IPC: 0.40186 cumulative IPC: 0.38219 (Simulation time: 0 hr 9 min 39 sec) 
Heartbeat CPU  0 instructions:  287000002 cycles:  596330689 heartbeat IPC: 0.38920 cumulative IPC: 0.38223 (Simulation time: 0 hr 9 min 42 sec) 
Heartbeat CPU  0 instructions:  288000000 cycles:  599043135 heartbeat IPC: 0.36867 cumulative IPC: 0.38215 (Simulation time: 0 hr 9 min 44 sec) 
Heartbeat CPU  0 instructions:  289000000 cycles:  601799688 heartbeat IPC: 0.36277 cumulative IPC: 0.38204 (Simulation time: 0 hr 9 min 46 sec) 
Heartbeat CPU  0 instructions:  290000002 cycles:  604395451 heartbeat IPC: 0.38524 cumulative IPC: 0.38206 (Simulation time: 0 hr 9 min 48 sec) 
Heartbeat CPU  0 instructions:  291000000 cycles:  607248887 heartbeat IPC: 0.35045 cumulative IPC: 0.38188 (Simulation time: 0 hr 9 min 51 sec) 
Heartbeat CPU  0 instructions:  292000000 cycles:  610055686 heartbeat IPC: 0.35628 cumulative IPC: 0.38174 (Simulation time: 0 hr 9 min 53 sec) 
Heartbeat CPU  0 instructions:  293000000 cycles:  612829493 heartbeat IPC: 0.36052 cumulative IPC: 0.38162 (Simulation time: 0 hr 9 min 55 sec) 
Heartbeat CPU  0 instructions:  294000002 cycles:  615572844 heartbeat IPC: 0.36452 cumulative IPC: 0.38153 (Simulation time: 0 hr 9 min 57 sec) 
Heartbeat CPU  0 instructions:  295000001 cycles:  618265599 heartbeat IPC: 0.37137 cumulative IPC: 0.38148 (Simulation time: 0 hr 10 min 0 sec) 
Heartbeat CPU  0 instructions:  296000000 cycles:  621017543 heartbeat IPC: 0.36338 cumulative IPC: 0.38138 (Simulation time: 0 hr 10 min 2 sec) 
Heartbeat CPU  0 instructions:  297000000 cycles:  623725638 heartbeat IPC: 0.36926 cumulative IPC: 0.38131 (Simulation time: 0 hr 10 min 4 sec) 
Heartbeat CPU  0 instructions:  298000000 cycles:  626394237 heartbeat IPC: 0.37473 cumulative IPC: 0.38128 (Simulation time: 0 hr 10 min 6 sec) 
Heartbeat CPU  0 instructions:  299000000 cycles:  629173360 heartbeat IPC: 0.35983 cumulative IPC: 0.38117 (Simulation time: 0 hr 10 min 8 sec) 
Heartbeat CPU  0 instructions:  300000000 cycles:  631867846 heartbeat IPC: 0.37113 cumulative IPC: 0.38112 (Simulation time: 0 hr 10 min 11 sec) 
Heartbeat CPU  0 instructions:  301000000 cycles:  634637827 heartbeat IPC: 0.36101 cumulative IPC: 0.38101 (Simulation time: 0 hr 10 min 13 sec) 
Heartbeat CPU  0 instructions:  302000000 cycles:  637388588 heartbeat IPC: 0.36354 cumulative IPC: 0.38092 (Simulation time: 0 hr 10 min 15 sec) 
Heartbeat CPU  0 instructions:  303000000 cycles:  640269552 heartbeat IPC: 0.34711 cumulative IPC: 0.38074 (Simulation time: 0 hr 10 min 17 sec) 
Heartbeat CPU  0 instructions:  304000000 cycles:  642990306 heartbeat IPC: 0.36755 cumulative IPC: 0.38067 (Simulation time: 0 hr 10 min 20 sec) 
Heartbeat CPU  0 instructions:  305000002 cycles:  645624339 heartbeat IPC: 0.37965 cumulative IPC: 0.38066 (Simulation time: 0 hr 10 min 22 sec) 
Heartbeat CPU  0 instructions:  306000000 cycles:  648510271 heartbeat IPC: 0.34651 cumulative IPC: 0.38048 (Simulation time: 0 hr 10 min 24 sec) 
Heartbeat CPU  0 instructions:  307000000 cycles:  651229726 heartbeat IPC: 0.36772 cumulative IPC: 0.38042 (Simulation time: 0 hr 10 min 27 sec) 
Heartbeat CPU  0 instructions:  308000000 cycles:  653950776 heartbeat IPC: 0.36751 cumulative IPC: 0.38035 (Simulation time: 0 hr 10 min 29 sec) 
Heartbeat CPU  0 instructions:  309000000 cycles:  656627611 heartbeat IPC: 0.37358 cumulative IPC: 0.38032 (Simulation time: 0 hr 10 min 31 sec) 
Heartbeat CPU  0 instructions:  310000000 cycles:  659052512 heartbeat IPC: 0.41239 cumulative IPC: 0.38046 (Simulation time: 0 hr 10 min 33 sec) 
Heartbeat CPU  0 instructions:  311000000 cycles:  660939527 heartbeat IPC: 0.52994 cumulative IPC: 0.38097 (Simulation time: 0 hr 10 min 35 sec) 
Heartbeat CPU  0 instructions:  312000000 cycles:  663572744 heartbeat IPC: 0.37976 cumulative IPC: 0.38097 (Simulation time: 0 hr 10 min 37 sec) 
Heartbeat CPU  0 instructions:  313000002 cycles:  666320639 heartbeat IPC: 0.36392 cumulative IPC: 0.38088 (Simulation time: 0 hr 10 min 39 sec) 
Heartbeat CPU  0 instructions:  314000002 cycles:  669057235 heartbeat IPC: 0.36542 cumulative IPC: 0.38081 (Simulation time: 0 hr 10 min 42 sec) 
Heartbeat CPU  0 instructions:  315000001 cycles:  671823005 heartbeat IPC: 0.36156 cumulative IPC: 0.38071 (Simulation time: 0 hr 10 min 44 sec) 
Heartbeat CPU  0 instructions:  316000000 cycles:  674629531 heartbeat IPC: 0.35631 cumulative IPC: 0.38059 (Simulation time: 0 hr 10 min 46 sec) 
Heartbeat CPU  0 instructions:  317000003 cycles:  677380747 heartbeat IPC: 0.36348 cumulative IPC: 0.38051 (Simulation time: 0 hr 10 min 48 sec) 
Heartbeat CPU  0 instructions:  318000000 cycles:  680090633 heartbeat IPC: 0.36902 cumulative IPC: 0.38045 (Simulation time: 0 hr 10 min 51 sec) 
Heartbeat CPU  0 instructions:  319000000 cycles:  682727300 heartbeat IPC: 0.37927 cumulative IPC: 0.38045 (Simulation time: 0 hr 10 min 53 sec) 
Heartbeat CPU  0 instructions:  320000000 cycles:  685391775 heartbeat IPC: 0.37531 cumulative IPC: 0.38043 (Simulation time: 0 hr 10 min 55 sec) 
Heartbeat CPU  0 instructions:  321000003 cycles:  688118664 heartbeat IPC: 0.36672 cumulative IPC: 0.38036 (Simulation time: 0 hr 10 min 57 sec) 
Heartbeat CPU  0 instructions:  322000002 cycles:  690731613 heartbeat IPC: 0.38271 cumulative IPC: 0.38037 (Simulation time: 0 hr 10 min 59 sec) 
Heartbeat CPU  0 instructions:  323000000 cycles:  693356365 heartbeat IPC: 0.38099 cumulative IPC: 0.38037 (Simulation time: 0 hr 11 min 2 sec) 
Heartbeat CPU  0 instructions:  324000000 cycles:  695435505 heartbeat IPC: 0.48097 cumulative IPC: 0.38073 (Simulation time: 0 hr 11 min 4 sec) 
Heartbeat CPU  0 instructions:  325000001 cycles:  697847464 heartbeat IPC: 0.41460 cumulative IPC: 0.38087 (Simulation time: 0 hr 11 min 6 sec) 
Heartbeat CPU  0 instructions:  326000000 cycles:  700312943 heartbeat IPC: 0.40560 cumulative IPC: 0.38097 (Simulation time: 0 hr 11 min 8 sec) 
Heartbeat CPU  0 instructions:  327000000 cycles:  702738094 heartbeat IPC: 0.41235 cumulative IPC: 0.38110 (Simulation time: 0 hr 11 min 10 sec) 
Heartbeat CPU  0 instructions:  328000000 cycles:  705413983 heartbeat IPC: 0.37371 cumulative IPC: 0.38107 (Simulation time: 0 hr 11 min 12 sec) 
Heartbeat CPU  0 instructions:  329000003 cycles:  707912880 heartbeat IPC: 0.40018 cumulative IPC: 0.38115 (Simulation time: 0 hr 11 min 15 sec) 
Heartbeat CPU  0 instructions:  330000001 cycles:  710258225 heartbeat IPC: 0.42638 cumulative IPC: 0.38132 (Simulation time: 0 hr 11 min 17 sec) 
Heartbeat CPU  0 instructions:  331000001 cycles:  712629597 heartbeat IPC: 0.42170 cumulative IPC: 0.38148 (Simulation time: 0 hr 11 min 19 sec) 
Heartbeat CPU  0 instructions:  332000000 cycles:  715222666 heartbeat IPC: 0.38564 cumulative IPC: 0.38150 (Simulation time: 0 hr 11 min 21 sec) 
Heartbeat CPU  0 instructions:  333000000 cycles:  717806407 heartbeat IPC: 0.38704 cumulative IPC: 0.38152 (Simulation time: 0 hr 11 min 23 sec) 
Heartbeat CPU  0 instructions:  334000001 cycles:  720353312 heartbeat IPC: 0.39263 cumulative IPC: 0.38157 (Simulation time: 0 hr 11 min 26 sec) 
Heartbeat CPU  0 instructions:  335000000 cycles:  722961904 heartbeat IPC: 0.38335 cumulative IPC: 0.38157 (Simulation time: 0 hr 11 min 28 sec) 
Heartbeat CPU  0 instructions:  336000000 cycles:  725362967 heartbeat IPC: 0.41648 cumulative IPC: 0.38171 (Simulation time: 0 hr 11 min 30 sec) 
Heartbeat CPU  0 instructions:  337000000 cycles:  727754236 heartbeat IPC: 0.41819 cumulative IPC: 0.38185 (Simulation time: 0 hr 11 min 32 sec) 
Heartbeat CPU  0 instructions:  338000001 cycles:  730231867 heartbeat IPC: 0.40361 cumulative IPC: 0.38194 (Simulation time: 0 hr 11 min 34 sec) 
Heartbeat CPU  0 instructions:  339000000 cycles:  732699276 heartbeat IPC: 0.40528 cumulative IPC: 0.38203 (Simulation time: 0 hr 11 min 37 sec) 
Heartbeat CPU  0 instructions:  340000000 cycles:  735326742 heartbeat IPC: 0.38059 cumulative IPC: 0.38202 (Simulation time: 0 hr 11 min 39 sec) 
Heartbeat CPU  0 instructions:  341000002 cycles:  737936172 heartbeat IPC: 0.38323 cumulative IPC: 0.38203 (Simulation time: 0 hr 11 min 41 sec) 
Heartbeat CPU  0 instructions:  342000001 cycles:  740703599 heartbeat IPC: 0.36135 cumulative IPC: 0.38194 (Simulation time: 0 hr 11 min 43 sec) 
Heartbeat CPU  0 instructions:  343000003 cycles:  743297503 heartbeat IPC: 0.38552 cumulative IPC: 0.38195 (Simulation time: 0 hr 11 min 45 sec) 
Heartbeat CPU  0 instructions:  344000000 cycles:  745827691 heartbeat IPC: 0.39523 cumulative IPC: 0.38200 (Simulation time: 0 hr 11 min 48 sec) 
Heartbeat CPU  0 instructions:  345000003 cycles:  748625513 heartbeat IPC: 0.35742 cumulative IPC: 0.38190 (Simulation time: 0 hr 11 min 50 sec) 
Heartbeat CPU  0 instructions:  346000001 cycles:  751351955 heartbeat IPC: 0.36678 cumulative IPC: 0.38183 (Simulation time: 0 hr 11 min 52 sec) 
Heartbeat CPU  0 instructions:  347000002 cycles:  753846663 heartbeat IPC: 0.40085 cumulative IPC: 0.38191 (Simulation time: 0 hr 11 min 54 sec) 
Heartbeat CPU  0 instructions:  348000000 cycles:  756215010 heartbeat IPC: 0.42223 cumulative IPC: 0.38205 (Simulation time: 0 hr 11 min 57 sec) 
Heartbeat CPU  0 instructions:  349000000 cycles:  758855948 heartbeat IPC: 0.37865 cumulative IPC: 0.38204 (Simulation time: 0 hr 11 min 59 sec) 
Heartbeat CPU  0 instructions:  350000001 cycles:  761377474 heartbeat IPC: 0.39659 cumulative IPC: 0.38210 (Simulation time: 0 hr 12 min 1 sec) 
Heartbeat CPU  0 instructions:  351000000 cycles:  764181220 heartbeat IPC: 0.35667 cumulative IPC: 0.38199 (Simulation time: 0 hr 12 min 3 sec) 
Heartbeat CPU  0 instructions:  352000000 cycles:  766862270 heartbeat IPC: 0.37299 cumulative IPC: 0.38195 (Simulation time: 0 hr 12 min 6 sec) 
Heartbeat CPU  0 instructions:  353000002 cycles:  769434163 heartbeat IPC: 0.38882 cumulative IPC: 0.38198 (Simulation time: 0 hr 12 min 8 sec) 
Heartbeat CPU  0 instructions:  354000000 cycles:  772050566 heartbeat IPC: 0.38220 cumulative IPC: 0.38198 (Simulation time: 0 hr 12 min 10 sec) 
Heartbeat CPU  0 instructions:  355000003 cycles:  774796223 heartbeat IPC: 0.36421 cumulative IPC: 0.38191 (Simulation time: 0 hr 12 min 12 sec) 
Heartbeat CPU  0 instructions:  356000000 cycles:  777534584 heartbeat IPC: 0.36518 cumulative IPC: 0.38184 (Simulation time: 0 hr 12 min 15 sec) 
Heartbeat CPU  0 instructions:  357000000 cycles:  780214387 heartbeat IPC: 0.37316 cumulative IPC: 0.38180 (Simulation time: 0 hr 12 min 17 sec) 
Heartbeat CPU  0 instructions:  358000000 cycles:  782922156 heartbeat IPC: 0.36931 cumulative IPC: 0.38175 (Simulation time: 0 hr 12 min 19 sec) 
Heartbeat CPU  0 instructions:  359000000 cycles:  785612636 heartbeat IPC: 0.37168 cumulative IPC: 0.38171 (Simulation time: 0 hr 12 min 21 sec) 
Heartbeat CPU  0 instructions:  360000000 cycles:  788294887 heartbeat IPC: 0.37282 cumulative IPC: 0.38168 (Simulation time: 0 hr 12 min 23 sec) 
Heartbeat CPU  0 instructions:  361000000 cycles:  790827670 heartbeat IPC: 0.39482 cumulative IPC: 0.38173 (Simulation time: 0 hr 12 min 26 sec) 
Heartbeat CPU  0 instructions:  362000000 cycles:  793729365 heartbeat IPC: 0.34463 cumulative IPC: 0.38157 (Simulation time: 0 hr 12 min 28 sec) 
Heartbeat CPU  0 instructions:  363000000 cycles:  796515360 heartbeat IPC: 0.35894 cumulative IPC: 0.38148 (Simulation time: 0 hr 12 min 30 sec) 
Heartbeat CPU  0 instructions:  364000000 cycles:  798895063 heartbeat IPC: 0.42022 cumulative IPC: 0.38161 (Simulation time: 0 hr 12 min 32 sec) 
Heartbeat CPU  0 instructions:  365000000 cycles:  801298141 heartbeat IPC: 0.41613 cumulative IPC: 0.38173 (Simulation time: 0 hr 12 min 34 sec) 
Heartbeat CPU  0 instructions:  366000002 cycles:  803141221 heartbeat IPC: 0.54257 cumulative IPC: 0.38216 (Simulation time: 0 hr 12 min 36 sec) 
Heartbeat CPU  0 instructions:  367000000 cycles:  804888827 heartbeat IPC: 0.57221 cumulative IPC: 0.38263 (Simulation time: 0 hr 12 min 38 sec) 
Heartbeat CPU  0 instructions:  368000000 cycles:  807574286 heartbeat IPC: 0.37238 cumulative IPC: 0.38259 (Simulation time: 0 hr 12 min 40 sec) 
Heartbeat CPU  0 instructions:  369000000 cycles:  810350971 heartbeat IPC: 0.36014 cumulative IPC: 0.38250 (Simulation time: 0 hr 12 min 43 sec) 
Heartbeat CPU  0 instructions:  370000000 cycles:  813194947 heartbeat IPC: 0.35162 cumulative IPC: 0.38238 (Simulation time: 0 hr 12 min 45 sec) 
Heartbeat CPU  0 instructions:  371000003 cycles:  815860731 heartbeat IPC: 0.37513 cumulative IPC: 0.38235 (Simulation time: 0 hr 12 min 47 sec) 
Heartbeat CPU  0 instructions:  372000000 cycles:  818523068 heartbeat IPC: 0.37561 cumulative IPC: 0.38233 (Simulation time: 0 hr 12 min 50 sec) 
Heartbeat CPU  0 instructions:  373000002 cycles:  821184321 heartbeat IPC: 0.37576 cumulative IPC: 0.38230 (Simulation time: 0 hr 12 min 52 sec) 
Heartbeat CPU  0 instructions:  374000001 cycles:  823979062 heartbeat IPC: 0.35781 cumulative IPC: 0.38221 (Simulation time: 0 hr 12 min 54 sec) 
Heartbeat CPU  0 instructions:  375000000 cycles:  826754782 heartbeat IPC: 0.36027 cumulative IPC: 0.38212 (Simulation time: 0 hr 12 min 56 sec) 
Heartbeat CPU  0 instructions:  376000000 cycles:  829533213 heartbeat IPC: 0.35992 cumulative IPC: 0.38204 (Simulation time: 0 hr 12 min 59 sec) 
Heartbeat CPU  0 instructions:  377000002 cycles:  832305067 heartbeat IPC: 0.36077 cumulative IPC: 0.38196 (Simulation time: 0 hr 13 min 1 sec) 
Heartbeat CPU  0 instructions:  378000001 cycles:  835067281 heartbeat IPC: 0.36203 cumulative IPC: 0.38188 (Simulation time: 0 hr 13 min 3 sec) 
Heartbeat CPU  0 instructions:  379000000 cycles:  837923218 heartbeat IPC: 0.35015 cumulative IPC: 0.38176 (Simulation time: 0 hr 13 min 5 sec) 
Heartbeat CPU  0 instructions:  380000000 cycles:  840749240 heartbeat IPC: 0.35385 cumulative IPC: 0.38165 (Simulation time: 0 hr 13 min 8 sec) 
Heartbeat CPU  0 instructions:  381000002 cycles:  843596179 heartbeat IPC: 0.35126 cumulative IPC: 0.38153 (Simulation time: 0 hr 13 min 10 sec) 
Heartbeat CPU  0 instructions:  382000000 cycles:  846311846 heartbeat IPC: 0.36823 cumulative IPC: 0.38148 (Simulation time: 0 hr 13 min 12 sec) 
Heartbeat CPU  0 instructions:  383000001 cycles:  849026089 heartbeat IPC: 0.36843 cumulative IPC: 0.38144 (Simulation time: 0 hr 13 min 14 sec) 
Heartbeat CPU  0 instructions:  384000000 cycles:  851829650 heartbeat IPC: 0.35669 cumulative IPC: 0.38134 (Simulation time: 0 hr 13 min 17 sec) 
Heartbeat CPU  0 instructions:  385000002 cycles:  854555910 heartbeat IPC: 0.36680 cumulative IPC: 0.38129 (Simulation time: 0 hr 13 min 19 sec) 
Heartbeat CPU  0 instructions:  386000000 cycles:  857132471 heartbeat IPC: 0.38811 cumulative IPC: 0.38131 (Simulation time: 0 hr 13 min 21 sec) 
Heartbeat CPU  0 instructions:  387000000 cycles:  859747408 heartbeat IPC: 0.38242 cumulative IPC: 0.38132 (Simulation time: 0 hr 13 min 23 sec) 
Heartbeat CPU  0 instructions:  388000000 cycles:  862563293 heartbeat IPC: 0.35513 cumulative IPC: 0.38122 (Simulation time: 0 hr 13 min 25 sec) 
Heartbeat CPU  0 instructions:  389000000 cycles:  865234027 heartbeat IPC: 0.37443 cumulative IPC: 0.38120 (Simulation time: 0 hr 13 min 28 sec) 
Heartbeat CPU  0 instructions:  390000001 cycles:  868144728 heartbeat IPC: 0.34356 cumulative IPC: 0.38105 (Simulation time: 0 hr 13 min 30 sec) 
Heartbeat CPU  0 instructions:  391000001 cycles:  870893103 heartbeat IPC: 0.36385 cumulative IPC: 0.38099 (Simulation time: 0 hr 13 min 32 sec) 
Heartbeat CPU  0 instructions:  392000000 cycles:  873519477 heartbeat IPC: 0.38075 cumulative IPC: 0.38099 (Simulation time: 0 hr 13 min 34 sec) 
Heartbeat CPU  0 instructions:  393000001 cycles:  876313066 heartbeat IPC: 0.35796 cumulative IPC: 0.38090 (Simulation time: 0 hr 13 min 37 sec) 
Heartbeat CPU  0 instructions:  394000002 cycles:  879030678 heartbeat IPC: 0.36797 cumulative IPC: 0.38086 (Simulation time: 0 hr 13 min 39 sec) 
Heartbeat CPU  0 instructions:  395000000 cycles:  881627209 heartbeat IPC: 0.38513 cumulative IPC: 0.38087 (Simulation time: 0 hr 13 min 41 sec) 
Heartbeat CPU  0 instructions:  396000000 cycles:  884464730 heartbeat IPC: 0.35242 cumulative IPC: 0.38077 (Simulation time: 0 hr 13 min 43 sec) 
Heartbeat CPU  0 instructions:  397000000 cycles:  887243310 heartbeat IPC: 0.35990 cumulative IPC: 0.38070 (Simulation time: 0 hr 13 min 45 sec) 
Heartbeat CPU  0 instructions:  398000000 cycles:  889789965 heartbeat IPC: 0.39267 cumulative IPC: 0.38073 (Simulation time: 0 hr 13 min 48 sec) 
Heartbeat CPU  0 instructions:  399000000 cycles:  892594459 heartbeat IPC: 0.35657 cumulative IPC: 0.38065 (Simulation time: 0 hr 13 min 50 sec) 
Heartbeat CPU  0 instructions:  400000000 cycles:  895158792 heartbeat IPC: 0.38996 cumulative IPC: 0.38068 (Simulation time: 0 hr 13 min 52 sec) 
Heartbeat CPU  0 instructions:  401000003 cycles:  897891066 heartbeat IPC: 0.36600 cumulative IPC: 0.38063 (Simulation time: 0 hr 13 min 54 sec) 
Heartbeat CPU  0 instructions:  402000001 cycles:  900458334 heartbeat IPC: 0.38952 cumulative IPC: 0.38066 (Simulation time: 0 hr 13 min 56 sec) 
Heartbeat CPU  0 instructions:  403000001 cycles:  902956430 heartbeat IPC: 0.40030 cumulative IPC: 0.38072 (Simulation time: 0 hr 13 min 58 sec) 
Heartbeat CPU  0 instructions:  404000000 cycles:  905824148 heartbeat IPC: 0.34871 cumulative IPC: 0.38060 (Simulation time: 0 hr 14 min 1 sec) 
Heartbeat CPU  0 instructions:  405000001 cycles:  908667840 heartbeat IPC: 0.35166 cumulative IPC: 0.38050 (Simulation time: 0 hr 14 min 3 sec) 
Heartbeat CPU  0 instructions:  406000002 cycles:  911506004 heartbeat IPC: 0.35234 cumulative IPC: 0.38040 (Simulation time: 0 hr 14 min 5 sec) 
Heartbeat CPU  0 instructions:  407000000 cycles:  914172446 heartbeat IPC: 0.37503 cumulative IPC: 0.38038 (Simulation time: 0 hr 14 min 7 sec) 
Heartbeat CPU  0 instructions:  408000000 cycles:  916942981 heartbeat IPC: 0.36094 cumulative IPC: 0.38032 (Simulation time: 0 hr 14 min 10 sec) 
Heartbeat CPU  0 instructions:  409000003 cycles:  919682787 heartbeat IPC: 0.36499 cumulative IPC: 0.38027 (Simulation time: 0 hr 14 min 12 sec) 
Heartbeat CPU  0 instructions:  410000002 cycles:  922336981 heartbeat IPC: 0.37676 cumulative IPC: 0.38025 (Simulation time: 0 hr 14 min 14 sec) 
Heartbeat CPU  0 instructions:  411000000 cycles:  925113460 heartbeat IPC: 0.36017 cumulative IPC: 0.38019 (Simulation time: 0 hr 14 min 16 sec) 
Heartbeat CPU  0 instructions:  412000000 cycles:  927794343 heartbeat IPC: 0.37301 cumulative IPC: 0.38016 (Simulation time: 0 hr 14 min 18 sec) 
Heartbeat CPU  0 instructions:  413000001 cycles:  930608936 heartbeat IPC: 0.35529 cumulative IPC: 0.38008 (Simulation time: 0 hr 14 min 21 sec) 
Heartbeat CPU  0 instructions:  414000003 cycles:  933264293 heartbeat IPC: 0.37660 cumulative IPC: 0.38007 (Simulation time: 0 hr 14 min 23 sec) 
Heartbeat CPU  0 instructions:  415000002 cycles:  935944219 heartbeat IPC: 0.37314 cumulative IPC: 0.38004 (Simulation time: 0 hr 14 min 25 sec) 
Heartbeat CPU  0 instructions:  416000000 cycles:  938637327 heartbeat IPC: 0.37132 cumulative IPC: 0.38002 (Simulation time: 0 hr 14 min 27 sec) 
Heartbeat CPU  0 instructions:  417000003 cycles:  941391924 heartbeat IPC: 0.36303 cumulative IPC: 0.37996 (Simulation time: 0 hr 14 min 29 sec) 
Heartbeat CPU  0 instructions:  418000001 cycles:  944162572 heartbeat IPC: 0.36093 cumulative IPC: 0.37990 (Simulation time: 0 hr 14 min 32 sec) 
Heartbeat CPU  0 instructions:  419000000 cycles:  946985404 heartbeat IPC: 0.35425 cumulative IPC: 0.37981 (Simulation time: 0 hr 14 min 34 sec) 
Heartbeat CPU  0 instructions:  420000000 cycles:  949734236 heartbeat IPC: 0.36379 cumulative IPC: 0.37976 (Simulation time: 0 hr 14 min 36 sec) 
Heartbeat CPU  0 instructions:  421000000 cycles:  952271814 heartbeat IPC: 0.39408 cumulative IPC: 0.37980 (Simulation time: 0 hr 14 min 38 sec) 
Heartbeat CPU  0 instructions:  422000001 cycles:  955100107 heartbeat IPC: 0.35357 cumulative IPC: 0.37971 (Simulation time: 0 hr 14 min 40 sec) 
Heartbeat CPU  0 instructions:  423000003 cycles:  957809391 heartbeat IPC: 0.36910 cumulative IPC: 0.37968 (Simulation time: 0 hr 14 min 42 sec) 
Heartbeat CPU  0 instructions:  424000000 cycles:  960403631 heartbeat IPC: 0.38547 cumulative IPC: 0.37970 (Simulation time: 0 hr 14 min 45 sec) 
Heartbeat CPU  0 instructions:  425000001 cycles:  963133634 heartbeat IPC: 0.36630 cumulative IPC: 0.37965 (Simulation time: 0 hr 14 min 47 sec) 
Heartbeat CPU  0 instructions:  426000003 cycles:  965649008 heartbeat IPC: 0.39756 cumulative IPC: 0.37971 (Simulation time: 0 hr 14 min 49 sec) 
Heartbeat CPU  0 instructions:  427000002 cycles:  968249993 heartbeat IPC: 0.38447 cumulative IPC: 0.37972 (Simulation time: 0 hr 14 min 51 sec) 
Heartbeat CPU  0 instructions:  428000000 cycles:  970834718 heartbeat IPC: 0.38689 cumulative IPC: 0.37974 (Simulation time: 0 hr 14 min 53 sec) 
Heartbeat CPU  0 instructions:  429000003 cycles:  973401082 heartbeat IPC: 0.38966 cumulative IPC: 0.37977 (Simulation time: 0 hr 14 min 55 sec) 
Heartbeat CPU  0 instructions:  430000002 cycles:  976161967 heartbeat IPC: 0.36220 cumulative IPC: 0.37972 (Simulation time: 0 hr 14 min 58 sec) 
Heartbeat CPU  0 instructions:  431000001 cycles:  978691045 heartbeat IPC: 0.39540 cumulative IPC: 0.37976 (Simulation time: 0 hr 15 min 0 sec) 
Heartbeat CPU  0 instructions:  432000000 cycles:  981398096 heartbeat IPC: 0.36941 cumulative IPC: 0.37973 (Simulation time: 0 hr 15 min 2 sec) 
Heartbeat CPU  0 instructions:  433000003 cycles:  984094089 heartbeat IPC: 0.37092 cumulative IPC: 0.37970 (Simulation time: 0 hr 15 min 4 sec) 
Heartbeat CPU  0 instructions:  434000000 cycles:  986666357 heartbeat IPC: 0.38876 cumulative IPC: 0.37973 (Simulation time: 0 hr 15 min 6 sec) 
Heartbeat CPU  0 instructions:  435000000 cycles:  989465593 heartbeat IPC: 0.35724 cumulative IPC: 0.37966 (Simulation time: 0 hr 15 min 9 sec) 
Heartbeat CPU  0 instructions:  436000000 cycles:  991803802 heartbeat IPC: 0.42768 cumulative IPC: 0.37978 (Simulation time: 0 hr 15 min 11 sec) 
Heartbeat CPU  0 instructions:  437000003 cycles:  994391142 heartbeat IPC: 0.38650 cumulative IPC: 0.37980 (Simulation time: 0 hr 15 min 13 sec) 
Heartbeat CPU  0 instructions:  438000001 cycles:  997257107 heartbeat IPC: 0.34892 cumulative IPC: 0.37970 (Simulation time: 0 hr 15 min 15 sec) 
Heartbeat CPU  0 instructions:  439000000 cycles: 1000127772 heartbeat IPC: 0.34835 cumulative IPC: 0.37960 (Simulation time: 0 hr 15 min 17 sec) 
Heartbeat CPU  0 instructions:  440000000 cycles: 1002897540 heartbeat IPC: 0.36104 cumulative IPC: 0.37955 (Simulation time: 0 hr 15 min 19 sec) 
Heartbeat CPU  0 instructions:  441000003 cycles: 1005682111 heartbeat IPC: 0.35912 cumulative IPC: 0.37948 (Simulation time: 0 hr 15 min 22 sec) 
Heartbeat CPU  0 instructions:  442000002 cycles: 1008447044 heartbeat IPC: 0.36167 cumulative IPC: 0.37943 (Simulation time: 0 hr 15 min 24 sec) 
Heartbeat CPU  0 instructions:  443000001 cycles: 1011282292 heartbeat IPC: 0.35270 cumulative IPC: 0.37935 (Simulation time: 0 hr 15 min 26 sec) 
Heartbeat CPU  0 instructions:  444000000 cycles: 1014061731 heartbeat IPC: 0.35978 cumulative IPC: 0.37929 (Simulation time: 0 hr 15 min 28 sec) 
Heartbeat CPU  0 instructions:  445000000 cycles: 1016926765 heartbeat IPC: 0.34904 cumulative IPC: 0.37919 (Simulation time: 0 hr 15 min 31 sec) 
Heartbeat CPU  0 instructions:  446000002 cycles: 1019772857 heartbeat IPC: 0.35136 cumulative IPC: 0.37910 (Simulation time: 0 hr 15 min 33 sec) 
Heartbeat CPU  0 instructions:  447000000 cycles: 1022567016 heartbeat IPC: 0.35789 cumulative IPC: 0.37904 (Simulation time: 0 hr 15 min 35 sec) 
Heartbeat CPU  0 instructions:  448000000 cycles: 1025096804 heartbeat IPC: 0.39529 cumulative IPC: 0.37908 (Simulation time: 0 hr 15 min 38 sec) 
Heartbeat CPU  0 instructions:  449000001 cycles: 1027960254 heartbeat IPC: 0.34923 cumulative IPC: 0.37899 (Simulation time: 0 hr 15 min 40 sec) 
Heartbeat CPU  0 instructions:  450000002 cycles: 1030729073 heartbeat IPC: 0.36117 cumulative IPC: 0.37894 (Simulation time: 0 hr 15 min 42 sec) 
Heartbeat CPU  0 instructions:  451000001 cycles: 1033417620 heartbeat IPC: 0.37195 cumulative IPC: 0.37892 (Simulation time: 0 hr 15 min 44 sec) 
Heartbeat CPU  0 instructions:  452000000 cycles: 1036244130 heartbeat IPC: 0.35379 cumulative IPC: 0.37884 (Simulation time: 0 hr 15 min 46 sec) 
Heartbeat CPU  0 instructions:  453000001 cycles: 1039042338 heartbeat IPC: 0.35737 cumulative IPC: 0.37878 (Simulation time: 0 hr 15 min 49 sec) 
Heartbeat CPU  0 instructions:  454000003 cycles: 1041900347 heartbeat IPC: 0.34989 cumulative IPC: 0.37869 (Simulation time: 0 hr 15 min 51 sec) 
Heartbeat CPU  0 instructions:  455000000 cycles: 1044614790 heartbeat IPC: 0.36840 cumulative IPC: 0.37866 (Simulation time: 0 hr 15 min 53 sec) 
Heartbeat CPU  0 instructions:  456000000 cycles: 1047438796 heartbeat IPC: 0.35411 cumulative IPC: 0.37858 (Simulation time: 0 hr 15 min 55 sec) 
Heartbeat CPU  0 instructions:  457000000 cycles: 1050164472 heartbeat IPC: 0.36688 cumulative IPC: 0.37855 (Simulation time: 0 hr 15 min 58 sec) 
Heartbeat CPU  0 instructions:  458000003 cycles: 1052957446 heartbeat IPC: 0.35804 cumulative IPC: 0.37849 (Simulation time: 0 hr 16 min 0 sec) 
Heartbeat CPU  0 instructions:  459000001 cycles: 1055697208 heartbeat IPC: 0.36499 cumulative IPC: 0.37845 (Simulation time: 0 hr 16 min 2 sec) 
Heartbeat CPU  0 instructions:  460000000 cycles: 1058421625 heartbeat IPC: 0.36705 cumulative IPC: 0.37842 (Simulation time: 0 hr 16 min 4 sec) 
Heartbeat CPU  0 instructions:  461000002 cycles: 1061194896 heartbeat IPC: 0.36059 cumulative IPC: 0.37837 (Simulation time: 0 hr 16 min 6 sec) 
Heartbeat CPU  0 instructions:  462000001 cycles: 1063920273 heartbeat IPC: 0.36692 cumulative IPC: 0.37833 (Simulation time: 0 hr 16 min 9 sec) 
Heartbeat CPU  0 instructions:  463000001 cycles: 1066754582 heartbeat IPC: 0.35282 cumulative IPC: 0.37826 (Simulation time: 0 hr 16 min 11 sec) 
Heartbeat CPU  0 instructions:  464000000 cycles: 1069558900 heartbeat IPC: 0.35659 cumulative IPC: 0.37819 (Simulation time: 0 hr 16 min 13 sec) 
Heartbeat CPU  0 instructions:  465000001 cycles: 1072182082 heartbeat IPC: 0.38122 cumulative IPC: 0.37820 (Simulation time: 0 hr 16 min 15 sec) 
Heartbeat CPU  0 instructions:  466000000 cycles: 1074907684 heartbeat IPC: 0.36689 cumulative IPC: 0.37817 (Simulation time: 0 hr 16 min 17 sec) 
Heartbeat CPU  0 instructions:  467000003 cycles: 1077617077 heartbeat IPC: 0.36909 cumulative IPC: 0.37815 (Simulation time: 0 hr 16 min 19 sec) 
Heartbeat CPU  0 instructions:  468000000 cycles: 1080259309 heartbeat IPC: 0.37847 cumulative IPC: 0.37815 (Simulation time: 0 hr 16 min 22 sec) 
Heartbeat CPU  0 instructions:  469000002 cycles: 1082839382 heartbeat IPC: 0.38759 cumulative IPC: 0.37817 (Simulation time: 0 hr 16 min 24 sec) 
Heartbeat CPU  0 instructions:  470000000 cycles: 1085547069 heartbeat IPC: 0.36932 cumulative IPC: 0.37815 (Simulation time: 0 hr 16 min 26 sec) 
Heartbeat CPU  0 instructions:  471000000 cycles: 1088139116 heartbeat IPC: 0.38580 cumulative IPC: 0.37817 (Simulation time: 0 hr 16 min 28 sec) 
Heartbeat CPU  0 instructions:  472000000 cycles: 1090806742 heartbeat IPC: 0.37487 cumulative IPC: 0.37816 (Simulation time: 0 hr 16 min 31 sec) 
Heartbeat CPU  0 instructions:  473000001 cycles: 1093739373 heartbeat IPC: 0.34099 cumulative IPC: 0.37805 (Simulation time: 0 hr 16 min 33 sec) 
Heartbeat CPU  0 instructions:  474000000 cycles: 1096357809 heartbeat IPC: 0.38191 cumulative IPC: 0.37806 (Simulation time: 0 hr 16 min 35 sec) 
Heartbeat CPU  0 instructions:  475000000 cycles: 1099177419 heartbeat IPC: 0.35466 cumulative IPC: 0.37799 (Simulation time: 0 hr 16 min 37 sec) 
Heartbeat CPU  0 instructions:  476000000 cycles: 1101995814 heartbeat IPC: 0.35481 cumulative IPC: 0.37793 (Simulation time: 0 hr 16 min 39 sec) 
Heartbeat CPU  0 instructions:  477000003 cycles: 1104728266 heartbeat IPC: 0.36597 cumulative IPC: 0.37789 (Simulation time: 0 hr 16 min 41 sec) 
Heartbeat CPU  0 instructions:  478000001 cycles: 1107393829 heartbeat IPC: 0.37515 cumulative IPC: 0.37789 (Simulation time: 0 hr 16 min 44 sec) 
Heartbeat CPU  0 instructions:  479000001 cycles: 1110004620 heartbeat IPC: 0.38303 cumulative IPC: 0.37790 (Simulation time: 0 hr 16 min 46 sec) 
Heartbeat CPU  0 instructions:  480000000 cycles: 1112860800 heartbeat IPC: 0.35012 cumulative IPC: 0.37782 (Simulation time: 0 hr 16 min 48 sec) 
Heartbeat CPU  0 instructions:  481000000 cycles: 1115537680 heartbeat IPC: 0.37357 cumulative IPC: 0.37781 (Simulation time: 0 hr 16 min 50 sec) 
Heartbeat CPU  0 instructions:  482000000 cycles: 1118173366 heartbeat IPC: 0.37941 cumulative IPC: 0.37781 (Simulation time: 0 hr 16 min 52 sec) 
Heartbeat CPU  0 instructions:  483000000 cycles: 1120736935 heartbeat IPC: 0.39008 cumulative IPC: 0.37784 (Simulation time: 0 hr 16 min 55 sec) 
Heartbeat CPU  0 instructions:  484000000 cycles: 1123434793 heartbeat IPC: 0.37066 cumulative IPC: 0.37783 (Simulation time: 0 hr 16 min 57 sec) 
Heartbeat CPU  0 instructions:  485000000 cycles: 1126096942 heartbeat IPC: 0.37564 cumulative IPC: 0.37782 (Simulation time: 0 hr 16 min 59 sec) 
Heartbeat CPU  0 instructions:  486000000 cycles: 1128710587 heartbeat IPC: 0.38261 cumulative IPC: 0.37783 (Simulation time: 0 hr 17 min 1 sec) 
Heartbeat CPU  0 instructions:  487000003 cycles: 1131516607 heartbeat IPC: 0.35638 cumulative IPC: 0.37777 (Simulation time: 0 hr 17 min 3 sec) 
Heartbeat CPU  0 instructions:  488000000 cycles: 1134323428 heartbeat IPC: 0.35627 cumulative IPC: 0.37771 (Simulation time: 0 hr 17 min 6 sec) 
Heartbeat CPU  0 instructions:  489000000 cycles: 1137039131 heartbeat IPC: 0.36823 cumulative IPC: 0.37769 (Simulation time: 0 hr 17 min 8 sec) 
Heartbeat CPU  0 instructions:  490000003 cycles: 1139804706 heartbeat IPC: 0.36159 cumulative IPC: 0.37765 (Simulation time: 0 hr 17 min 10 sec) 
Heartbeat CPU  0 instructions:  491000001 cycles: 1142529528 heartbeat IPC: 0.36700 cumulative IPC: 0.37762 (Simulation time: 0 hr 17 min 12 sec) 
Heartbeat CPU  0 instructions:  492000000 cycles: 1145311886 heartbeat IPC: 0.35941 cumulative IPC: 0.37757 (Simulation time: 0 hr 17 min 15 sec) 
Heartbeat CPU  0 instructions:  493000000 cycles: 1148000028 heartbeat IPC: 0.37200 cumulative IPC: 0.37756 (Simulation time: 0 hr 17 min 17 sec) 
Heartbeat CPU  0 instructions:  494000000 cycles: 1150633338 heartbeat IPC: 0.37975 cumulative IPC: 0.37756 (Simulation time: 0 hr 17 min 19 sec) 
Heartbeat CPU  0 instructions:  495000001 cycles: 1153478821 heartbeat IPC: 0.35143 cumulative IPC: 0.37749 (Simulation time: 0 hr 17 min 21 sec) 
Heartbeat CPU  0 instructions:  496000000 cycles: 1156239523 heartbeat IPC: 0.36223 cumulative IPC: 0.37745 (Simulation time: 0 hr 17 min 23 sec) 
Heartbeat CPU  0 instructions:  497000001 cycles: 1159018964 heartbeat IPC: 0.35978 cumulative IPC: 0.37740 (Simulation time: 0 hr 17 min 26 sec) 
Heartbeat CPU  0 instructions:  498000000 cycles: 1161794282 heartbeat IPC: 0.36032 cumulative IPC: 0.37736 (Simulation time: 0 hr 17 min 28 sec) 
Heartbeat CPU  0 instructions:  499000002 cycles: 1164538860 heartbeat IPC: 0.36436 cumulative IPC: 0.37732 (Simulation time: 0 hr 17 min 30 sec) 
Heartbeat CPU  0 instructions:  500000000 cycles: 1167223530 heartbeat IPC: 0.37248 cumulative IPC: 0.37731 (Simulation time: 0 hr 17 min 32 sec) 
Heartbeat CPU  0 instructions:  501000000 cycles: 1169943781 heartbeat IPC: 0.36761 cumulative IPC: 0.37729 (Simulation time: 0 hr 17 min 35 sec) 
Heartbeat CPU  0 instructions:  502000000 cycles: 1172734585 heartbeat IPC: 0.35832 cumulative IPC: 0.37724 (Simulation time: 0 hr 17 min 37 sec) 
Heartbeat CPU  0 instructions:  503000002 cycles: 1175557521 heartbeat IPC: 0.35424 cumulative IPC: 0.37718 (Simulation time: 0 hr 17 min 39 sec) 
Heartbeat CPU  0 instructions:  504000000 cycles: 1178397120 heartbeat IPC: 0.35216 cumulative IPC: 0.37711 (Simulation time: 0 hr 17 min 41 sec) 
Heartbeat CPU  0 instructions:  505000001 cycles: 1181015702 heartbeat IPC: 0.38189 cumulative IPC: 0.37712 (Simulation time: 0 hr 17 min 43 sec) 
Heartbeat CPU  0 instructions:  506000001 cycles: 1183842061 heartbeat IPC: 0.35381 cumulative IPC: 0.37706 (Simulation time: 0 hr 17 min 46 sec) 
Heartbeat CPU  0 instructions:  507000001 cycles: 1186677038 heartbeat IPC: 0.35274 cumulative IPC: 0.37700 (Simulation time: 0 hr 17 min 48 sec) 
Heartbeat CPU  0 instructions:  508000000 cycles: 1189426298 heartbeat IPC: 0.36373 cumulative IPC: 0.37696 (Simulation time: 0 hr 17 min 50 sec) 
Heartbeat CPU  0 instructions:  509000001 cycles: 1191995743 heartbeat IPC: 0.38919 cumulative IPC: 0.37699 (Simulation time: 0 hr 17 min 52 sec) 
Heartbeat CPU  0 instructions:  510000003 cycles: 1194736793 heartbeat IPC: 0.36482 cumulative IPC: 0.37696 (Simulation time: 0 hr 17 min 54 sec) 
Heartbeat CPU  0 instructions:  511000001 cycles: 1197178463 heartbeat IPC: 0.40955 cumulative IPC: 0.37703 (Simulation time: 0 hr 17 min 56 sec) 
Heartbeat CPU  0 instructions:  512000000 cycles: 1199933790 heartbeat IPC: 0.36293 cumulative IPC: 0.37700 (Simulation time: 0 hr 17 min 59 sec) 
Heartbeat CPU  0 instructions:  513000001 cycles: 1202644977 heartbeat IPC: 0.36884 cumulative IPC: 0.37698 (Simulation time: 0 hr 18 min 1 sec) 
Heartbeat CPU  0 instructions:  514000002 cycles: 1205340519 heartbeat IPC: 0.37098 cumulative IPC: 0.37696 (Simulation time: 0 hr 18 min 3 sec) 
Heartbeat CPU  0 instructions:  515000001 cycles: 1207876098 heartbeat IPC: 0.39439 cumulative IPC: 0.37700 (Simulation time: 0 hr 18 min 5 sec) 
Heartbeat CPU  0 instructions:  516000000 cycles: 1210380884 heartbeat IPC: 0.39924 cumulative IPC: 0.37705 (Simulation time: 0 hr 18 min 7 sec) 
Heartbeat CPU  0 instructions:  517000002 cycles: 1213205189 heartbeat IPC: 0.35407 cumulative IPC: 0.37700 (Simulation time: 0 hr 18 min 9 sec) 
Heartbeat CPU  0 instructions:  518000001 cycles: 1216022276 heartbeat IPC: 0.35498 cumulative IPC: 0.37694 (Simulation time: 0 hr 18 min 12 sec) 
Heartbeat CPU  0 instructions:  519000001 cycles: 1218730015 heartbeat IPC: 0.36931 cumulative IPC: 0.37692 (Simulation time: 0 hr 18 min 14 sec) 
Heartbeat CPU  0 instructions:  520000000 cycles: 1221536631 heartbeat IPC: 0.35630 cumulative IPC: 0.37687 (Simulation time: 0 hr 18 min 16 sec) 
Heartbeat CPU  0 instructions:  521000000 cycles: 1224192478 heartbeat IPC: 0.37653 cumulative IPC: 0.37687 (Simulation time: 0 hr 18 min 18 sec) 
Heartbeat CPU  0 instructions:  522000000 cycles: 1226842957 heartbeat IPC: 0.37729 cumulative IPC: 0.37687 (Simulation time: 0 hr 18 min 20 sec) 
Heartbeat CPU  0 instructions:  523000002 cycles: 1229321736 heartbeat IPC: 0.40343 cumulative IPC: 0.37693 (Simulation time: 0 hr 18 min 22 sec) 
Heartbeat CPU  0 instructions:  524000000 cycles: 1232102428 heartbeat IPC: 0.35962 cumulative IPC: 0.37689 (Simulation time: 0 hr 18 min 24 sec) 
Heartbeat CPU  0 instructions:  525000000 cycles: 1234690812 heartbeat IPC: 0.38634 cumulative IPC: 0.37691 (Simulation time: 0 hr 18 min 27 sec) 
Heartbeat CPU  0 instructions:  526000000 cycles: 1237300978 heartbeat IPC: 0.38312 cumulative IPC: 0.37692 (Simulation time: 0 hr 18 min 29 sec) 
Heartbeat CPU  0 instructions:  527000000 cycles: 1239616794 heartbeat IPC: 0.43181 cumulative IPC: 0.37703 (Simulation time: 0 hr 18 min 31 sec) 
Heartbeat CPU  0 instructions:  528000000 cycles: 1242104091 heartbeat IPC: 0.40204 cumulative IPC: 0.37709 (Simulation time: 0 hr 18 min 33 sec) 
Heartbeat CPU  0 instructions:  529000001 cycles: 1244495206 heartbeat IPC: 0.41822 cumulative IPC: 0.37718 (Simulation time: 0 hr 18 min 35 sec) 
Heartbeat CPU  0 instructions:  530000000 cycles: 1246753589 heartbeat IPC: 0.44279 cumulative IPC: 0.37731 (Simulation time: 0 hr 18 min 37 sec) 
Heartbeat CPU  0 instructions:  531000001 cycles: 1249311563 heartbeat IPC: 0.39093 cumulative IPC: 0.37734 (Simulation time: 0 hr 18 min 39 sec) 
Heartbeat CPU  0 instructions:  532000000 cycles: 1251503260 heartbeat IPC: 0.45627 cumulative IPC: 0.37749 (Simulation time: 0 hr 18 min 41 sec) 
Heartbeat CPU  0 instructions:  533000000 cycles: 1254315273 heartbeat IPC: 0.35562 cumulative IPC: 0.37743 (Simulation time: 0 hr 18 min 43 sec) 
Heartbeat CPU  0 instructions:  534000003 cycles: 1256703720 heartbeat IPC: 0.41868 cumulative IPC: 0.37752 (Simulation time: 0 hr 18 min 45 sec) 
Heartbeat CPU  0 instructions:  535000002 cycles: 1259463268 heartbeat IPC: 0.36238 cumulative IPC: 0.37748 (Simulation time: 0 hr 18 min 48 sec) 
Heartbeat CPU  0 instructions:  536000000 cycles: 1261878067 heartbeat IPC: 0.41411 cumulative IPC: 0.37756 (Simulation time: 0 hr 18 min 50 sec) 
Heartbeat CPU  0 instructions:  537000002 cycles: 1264407040 heartbeat IPC: 0.39542 cumulative IPC: 0.37760 (Simulation time: 0 hr 18 min 52 sec) 
Heartbeat CPU  0 instructions:  538000000 cycles: 1266920479 heartbeat IPC: 0.39786 cumulative IPC: 0.37764 (Simulation time: 0 hr 18 min 54 sec) 
Heartbeat CPU  0 instructions:  539000001 cycles: 1269482047 heartbeat IPC: 0.39039 cumulative IPC: 0.37767 (Simulation time: 0 hr 18 min 56 sec) 
Heartbeat CPU  0 instructions:  540000000 cycles: 1272038815 heartbeat IPC: 0.39112 cumulative IPC: 0.37770 (Simulation time: 0 hr 18 min 58 sec) 
Heartbeat CPU  0 instructions:  541000001 cycles: 1274815053 heartbeat IPC: 0.36020 cumulative IPC: 0.37766 (Simulation time: 0 hr 19 min 0 sec) 
Heartbeat CPU  0 instructions:  542000001 cycles: 1277476696 heartbeat IPC: 0.37571 cumulative IPC: 0.37765 (Simulation time: 0 hr 19 min 2 sec) 
Heartbeat CPU  0 instructions:  543000002 cycles: 1280268460 heartbeat IPC: 0.35820 cumulative IPC: 0.37761 (Simulation time: 0 hr 19 min 5 sec) 
Heartbeat CPU  0 instructions:  544000000 cycles: 1282927180 heartbeat IPC: 0.37612 cumulative IPC: 0.37760 (Simulation time: 0 hr 19 min 7 sec) 
Heartbeat CPU  0 instructions:  545000001 cycles: 1285609535 heartbeat IPC: 0.37281 cumulative IPC: 0.37759 (Simulation time: 0 hr 19 min 9 sec) 
Heartbeat CPU  0 instructions:  546000001 cycles: 1288352794 heartbeat IPC: 0.36453 cumulative IPC: 0.37756 (Simulation time: 0 hr 19 min 11 sec) 
Heartbeat CPU  0 instructions:  547000000 cycles: 1291034561 heartbeat IPC: 0.37289 cumulative IPC: 0.37755 (Simulation time: 0 hr 19 min 13 sec) 
Heartbeat CPU  0 instructions:  548000000 cycles: 1293610967 heartbeat IPC: 0.38814 cumulative IPC: 0.37758 (Simulation time: 0 hr 19 min 16 sec) 
Heartbeat CPU  0 instructions:  549000000 cycles: 1296157915 heartbeat IPC: 0.39263 cumulative IPC: 0.37761 (Simulation time: 0 hr 19 min 18 sec) 
Heartbeat CPU  0 instructions:  550000001 cycles: 1299054525 heartbeat IPC: 0.34523 cumulative IPC: 0.37753 (Simulation time: 0 hr 19 min 20 sec) 
Heartbeat CPU  0 instructions:  551000003 cycles: 1301731017 heartbeat IPC: 0.37362 cumulative IPC: 0.37752 (Simulation time: 0 hr 19 min 22 sec) 
Heartbeat CPU  0 instructions:  552000000 cycles: 1304332099 heartbeat IPC: 0.38445 cumulative IPC: 0.37754 (Simulation time: 0 hr 19 min 24 sec) 
Heartbeat CPU  0 instructions:  553000002 cycles: 1306967060 heartbeat IPC: 0.37951 cumulative IPC: 0.37754 (Simulation time: 0 hr 19 min 26 sec) 
Heartbeat CPU  0 instructions:  554000000 cycles: 1309455933 heartbeat IPC: 0.40179 cumulative IPC: 0.37759 (Simulation time: 0 hr 19 min 28 sec) 
Heartbeat CPU  0 instructions:  555000003 cycles: 1312230253 heartbeat IPC: 0.36045 cumulative IPC: 0.37755 (Simulation time: 0 hr 19 min 31 sec) 
Heartbeat CPU  0 instructions:  556000000 cycles: 1314900429 heartbeat IPC: 0.37451 cumulative IPC: 0.37754 (Simulation time: 0 hr 19 min 33 sec) 
Heartbeat CPU  0 instructions:  557000000 cycles: 1317547513 heartbeat IPC: 0.37777 cumulative IPC: 0.37754 (Simulation time: 0 hr 19 min 35 sec) 
Heartbeat CPU  0 instructions:  558000001 cycles: 1320330360 heartbeat IPC: 0.35934 cumulative IPC: 0.37750 (Simulation time: 0 hr 19 min 37 sec) 
Heartbeat CPU  0 instructions:  559000001 cycles: 1323240714 heartbeat IPC: 0.34360 cumulative IPC: 0.37742 (Simulation time: 0 hr 19 min 39 sec) 
Heartbeat CPU  0 instructions:  560000000 cycles: 1326070379 heartbeat IPC: 0.35340 cumulative IPC: 0.37737 (Simulation time: 0 hr 19 min 42 sec) 
Heartbeat CPU  0 instructions:  561000002 cycles: 1328826619 heartbeat IPC: 0.36281 cumulative IPC: 0.37733 (Simulation time: 0 hr 19 min 44 sec) 
Heartbeat CPU  0 instructions:  562000002 cycles: 1331494109 heartbeat IPC: 0.37488 cumulative IPC: 0.37733 (Simulation time: 0 hr 19 min 46 sec) 
Heartbeat CPU  0 instructions:  563000000 cycles: 1334293907 heartbeat IPC: 0.35717 cumulative IPC: 0.37728 (Simulation time: 0 hr 19 min 48 sec) 
Heartbeat CPU  0 instructions:  564000000 cycles: 1337029969 heartbeat IPC: 0.36549 cumulative IPC: 0.37725 (Simulation time: 0 hr 19 min 50 sec) 
Heartbeat CPU  0 instructions:  565000000 cycles: 1339820608 heartbeat IPC: 0.35834 cumulative IPC: 0.37721 (Simulation time: 0 hr 19 min 53 sec) 
Heartbeat CPU  0 instructions:  566000001 cycles: 1342392819 heartbeat IPC: 0.38877 cumulative IPC: 0.37724 (Simulation time: 0 hr 19 min 55 sec) 
Heartbeat CPU  0 instructions:  567000000 cycles: 1345190873 heartbeat IPC: 0.35739 cumulative IPC: 0.37719 (Simulation time: 0 hr 19 min 57 sec) 
Heartbeat CPU  0 instructions:  568000000 cycles: 1347858884 heartbeat IPC: 0.37481 cumulative IPC: 0.37719 (Simulation time: 0 hr 19 min 59 sec) 
Heartbeat CPU  0 instructions:  569000001 cycles: 1350691087 heartbeat IPC: 0.35308 cumulative IPC: 0.37713 (Simulation time: 0 hr 20 min 1 sec) 
Heartbeat CPU  0 instructions:  570000002 cycles: 1353197537 heartbeat IPC: 0.39897 cumulative IPC: 0.37718 (Simulation time: 0 hr 20 min 3 sec) 
Heartbeat CPU  0 instructions:  571000000 cycles: 1355908064 heartbeat IPC: 0.36893 cumulative IPC: 0.37716 (Simulation time: 0 hr 20 min 6 sec) 
Heartbeat CPU  0 instructions:  572000000 cycles: 1358544565 heartbeat IPC: 0.37929 cumulative IPC: 0.37716 (Simulation time: 0 hr 20 min 8 sec) 
Heartbeat CPU  0 instructions:  573000001 cycles: 1360984879 heartbeat IPC: 0.40978 cumulative IPC: 0.37723 (Simulation time: 0 hr 20 min 10 sec) 
Heartbeat CPU  0 instructions:  574000001 cycles: 1363692957 heartbeat IPC: 0.36927 cumulative IPC: 0.37721 (Simulation time: 0 hr 20 min 12 sec) 
Heartbeat CPU  0 instructions:  575000002 cycles: 1366280136 heartbeat IPC: 0.38652 cumulative IPC: 0.37723 (Simulation time: 0 hr 20 min 14 sec) 
Heartbeat CPU  0 instructions:  576000000 cycles: 1368933603 heartbeat IPC: 0.37686 cumulative IPC: 0.37723 (Simulation time: 0 hr 20 min 16 sec) 
Heartbeat CPU  0 instructions:  577000000 cycles: 1371522478 heartbeat IPC: 0.38627 cumulative IPC: 0.37725 (Simulation time: 0 hr 20 min 18 sec) 
Heartbeat CPU  0 instructions:  578000002 cycles: 1373816675 heartbeat IPC: 0.43588 cumulative IPC: 0.37735 (Simulation time: 0 hr 20 min 20 sec) 
Heartbeat CPU  0 instructions:  579000000 cycles: 1376610828 heartbeat IPC: 0.35789 cumulative IPC: 0.37731 (Simulation time: 0 hr 20 min 22 sec) 
Heartbeat CPU  0 instructions:  580000000 cycles: 1379420917 heartbeat IPC: 0.35586 cumulative IPC: 0.37726 (Simulation time: 0 hr 20 min 25 sec) 
Heartbeat CPU  0 instructions:  581000001 cycles: 1382147244 heartbeat IPC: 0.36679 cumulative IPC: 0.37724 (Simulation time: 0 hr 20 min 27 sec) 
Heartbeat CPU  0 instructions:  582000001 cycles: 1385050903 heartbeat IPC: 0.34439 cumulative IPC: 0.37716 (Simulation time: 0 hr 20 min 29 sec) 
Heartbeat CPU  0 instructions:  583000000 cycles: 1387905382 heartbeat IPC: 0.35033 cumulative IPC: 0.37710 (Simulation time: 0 hr 20 min 31 sec) 
Heartbeat CPU  0 instructions:  584000000 cycles: 1390560898 heartbeat IPC: 0.37657 cumulative IPC: 0.37710 (Simulation time: 0 hr 20 min 34 sec) 
Heartbeat CPU  0 instructions:  585000003 cycles: 1393191069 heartbeat IPC: 0.38020 cumulative IPC: 0.37711 (Simulation time: 0 hr 20 min 36 sec) 
Heartbeat CPU  0 instructions:  586000000 cycles: 1396080388 heartbeat IPC: 0.34610 cumulative IPC: 0.37704 (Simulation time: 0 hr 20 min 38 sec) 
Heartbeat CPU  0 instructions:  587000000 cycles: 1398764556 heartbeat IPC: 0.37255 cumulative IPC: 0.37703 (Simulation time: 0 hr 20 min 40 sec) 
Heartbeat CPU  0 instructions:  588000000 cycles: 1401545265 heartbeat IPC: 0.35962 cumulative IPC: 0.37699 (Simulation time: 0 hr 20 min 42 sec) 
Heartbeat CPU  0 instructions:  589000000 cycles: 1404333558 heartbeat IPC: 0.35864 cumulative IPC: 0.37695 (Simulation time: 0 hr 20 min 45 sec) 
Heartbeat CPU  0 instructions:  590000001 cycles: 1406781253 heartbeat IPC: 0.40855 cumulative IPC: 0.37701 (Simulation time: 0 hr 20 min 47 sec) 
Heartbeat CPU  0 instructions:  591000003 cycles: 1409427111 heartbeat IPC: 0.37795 cumulative IPC: 0.37702 (Simulation time: 0 hr 20 min 49 sec) 
Heartbeat CPU  0 instructions:  592000000 cycles: 1412216497 heartbeat IPC: 0.35850 cumulative IPC: 0.37698 (Simulation time: 0 hr 20 min 51 sec) 
Heartbeat CPU  0 instructions:  593000000 cycles: 1414938017 heartbeat IPC: 0.36744 cumulative IPC: 0.37696 (Simulation time: 0 hr 20 min 53 sec) 
Heartbeat CPU  0 instructions:  594000000 cycles: 1417216535 heartbeat IPC: 0.43888 cumulative IPC: 0.37706 (Simulation time: 0 hr 20 min 55 sec) 
Heartbeat CPU  0 instructions:  595000001 cycles: 1419767012 heartbeat IPC: 0.39208 cumulative IPC: 0.37709 (Simulation time: 0 hr 20 min 57 sec) 
Heartbeat CPU  0 instructions:  596000000 cycles: 1422561541 heartbeat IPC: 0.35784 cumulative IPC: 0.37705 (Simulation time: 0 hr 20 min 59 sec) 
Heartbeat CPU  0 instructions:  597000000 cycles: 1425444696 heartbeat IPC: 0.34684 cumulative IPC: 0.37699 (Simulation time: 0 hr 21 min 2 sec) 
Heartbeat CPU  0 instructions:  598000000 cycles: 1428026118 heartbeat IPC: 0.38738 cumulative IPC: 0.37701 (Simulation time: 0 hr 21 min 4 sec) 
Heartbeat CPU  0 instructions:  599000000 cycles: 1430917487 heartbeat IPC: 0.34586 cumulative IPC: 0.37694 (Simulation time: 0 hr 21 min 6 sec) 
Heartbeat CPU  0 instructions:  600000000 cycles: 1433352026 heartbeat IPC: 0.41076 cumulative IPC: 0.37700 (Simulation time: 0 hr 21 min 8 sec) 
Finished CPU 0 instructions: 500000000 cycles: 1326259824 cumulative IPC: 0.37700 (Simulation time: 0 hr 21 min 8 sec) 

ChampSim completed all CPUs

[ROI Statistics]
Core_0_instructions 500000000
Core_0_cycles 1326259824
Core_0_IPC 0.37700

Core_0_branch_prediction_accuracy 85.18932
Core_0_branch_MPKI 24.43069
Core_0_average_ROB_occupancy_at_mispredict 38.24752

Core_0_L1D_total_access 155624480
Core_0_L1D_total_hit 153308845
Core_0_L1D_total_miss 2315635
Core_0_L1D_loads 89720245
Core_0_L1D_load_hit 88890714
Core_0_L1D_load_miss 829531
Core_0_L1D_RFOs 65904235
Core_0_L1D_RFO_hit 64418131
Core_0_L1D_RFO_miss 1486104
Core_0_L1D_prefetches 0
Core_0_L1D_prefetch_hit 0
Core_0_L1D_prefetch_miss 0
Core_0_L1D_writebacks 0
Core_0_L1D_writeback_hit 0
Core_0_L1D_writeback_miss 0
Core_0_L1D_prefetch_requested 0
Core_0_L1D_prefetch_dropped 0
Core_0_L1D_prefetch_issued 0
Core_0_L1D_prefetch_filled 0
Core_0_L1D_prefetch_useful 0
Core_0_L1D_prefetch_useless 0
Core_0_L1D_prefetch_late 0
Core_0_L1D_average_miss_latency 302.33203

Core_0_L1D_rq_access 125890266
Core_0_L1D_rq_forward 0
Core_0_L1D_rq_merged 36078245
Core_0_L1D_rq_to_cache 89811389
Core_0_L1D_rq_full 0

Core_0_L1D_wq_access 70505122
Core_0_L1D_wq_forward 632
Core_0_L1D_wq_merged 423352
Core_0_L1D_wq_to_cache 70081770
Core_0_L1D_wq_full 31118127

Core_0_L1D_pq_access 0
Core_0_L1D_pq_forward 0
Core_0_L1D_pq_merged 0
Core_0_L1D_pq_to_cache 0
Core_0_L1D_pq_full 0

Core_0_L1D_acc_epochs 1397504
Core_0_L1D_acc_level_0 1397504
Core_0_L1D_acc_level_1 0
Core_0_L1D_acc_level_2 0
Core_0_L1D_acc_level_3 0
Core_0_L1D_acc_level_4 0
Core_0_L1D_acc_level_5 0
Core_0_L1D_acc_level_6 0
Core_0_L1D_acc_level_7 0
Core_0_L1D_acc_level_8 0
Core_0_L1D_acc_level_9 0

Core_0_L1I_total_access 100045464
Core_0_L1I_total_hit 98100527
Core_0_L1I_total_miss 1944937
Core_0_L1I_loads 100045464
Core_0_L1I_load_hit 98100527
Core_0_L1I_load_miss 1944937
Core_0_L1I_RFOs 0
Core_0_L1I_RFO_hit 0
Core_0_L1I_RFO_miss 0
Core_0_L1I_prefetches 0
Core_0_L1I_prefetch_hit 0
Core_0_L1I_prefetch_miss 0
Core_0_L1I_writebacks 0
Core_0_L1I_writeback_hit 0
Core_0_L1I_writeback_miss 0
Core_0_L1I_prefetch_requested 0
Core_0_L1I_prefetch_dropped 0
Core_0_L1I_prefetch_issued 0
Core_0_L1I_prefetch_filled 0
Core_0_L1I_prefetch_useful 0
Core_0_L1I_prefetch_useless 0
Core_0_L1I_prefetch_late 0
Core_0_L1I_average_miss_latency 12.78355

Core_0_L1I_rq_access 499999934
Core_0_L1I_rq_forward 0
Core_0_L1I_rq_merged 399239039
Core_0_L1I_rq_to_cache 100760895
Core_0_L1I_rq_full 0

Core_0_L1I_wq_access 0
Core_0_L1I_wq_forward 0
Core_0_L1I_wq_merged 0
Core_0_L1I_wq_to_cache 0
Core_0_L1I_wq_full 0

Core_0_L1I_pq_access 0
Core_0_L1I_pq_forward 0
Core_0_L1I_pq_merged 0
Core_0_L1I_pq_to_cache 0
Core_0_L1I_pq_full 0

Core_0_L1I_acc_epochs 1397504
Core_0_L1I_acc_level_0 1397504
Core_0_L1I_acc_level_1 0
Core_0_L1I_acc_level_2 0
Core_0_L1I_acc_level_3 0
Core_0_L1I_acc_level_4 0
Core_0_L1I_acc_level_5 0
Core_0_L1I_acc_level_6 0
Core_0_L1I_acc_level_7 0
Core_0_L1I_acc_level_8 0
Core_0_L1I_acc_level_9 0

Core_0_L2C_total_access 6705203
Core_0_L2C_total_hit 5381680
Core_0_L2C_total_miss 1323523
Core_0_L2C_loads 2774446
Core_0_L2C_load_hit 2348896
Core_0_L2C_load_miss 425550
Core_0_L2C_RFOs 1486059
Core_0_L2C_RFO_hit 610954
Core_0_L2C_RFO_miss 875105
Core_0_L2C_prefetches 690511
Core_0_L2C_prefetch_hit 669500
Core_0_L2C_prefetch_miss 21011
Core_0_L2C_writebacks 1754187
Core_0_L2C_writeback_hit 1752330
Core_0_L2C_writeback_miss 1857
Core_0_L2C_prefetch_requested 1547889
Core_0_L2C_prefetch_dropped 0
Core_0_L2C_prefetch_issued 1547889
Core_0_L2C_prefetch_filled 22294
Core_0_L2C_prefetch_useful 22075
Core_0_L2C_prefetch_useless 219
Core_0_L2C_prefetch_late 6354
Core_0_L2C_average_miss_latency 506.77111

Core_0_L2C_rq_access 4260572
Core_0_L2C_rq_forward 0
Core_0_L2C_rq_merged 0
Core_0_L2C_rq_to_cache 4260505
Core_0_L2C_rq_full 0

Core_0_L2C_wq_access 1754187
Core_0_L2C_wq_forward 67
Core_0_L2C_wq_merged 0
Core_0_L2C_wq_to_cache 1754187
Core_0_L2C_wq_full 0

Core_0_L2C_pq_access 1547889
Core_0_L2C_pq_forward 0
Core_0_L2C_pq_merged 239557
Core_0_L2C_pq_to_cache 1308332
Core_0_L2C_pq_full 0

Core_0_L2C_acc_epochs 1397504
Core_0_L2C_acc_level_0 1391809
Core_0_L2C_acc_level_1 442
Core_0_L2C_acc_level_2 381
Core_0_L2C_acc_level_3 213
Core_0_L2C_acc_level_4 236
Core_0_L2C_acc_level_5 462
Core_0_L2C_acc_level_6 177
Core_0_L2C_acc_level_7 360
Core_0_L2C_acc_level_8 437
Core_0_L2C_acc_level_9 2987

Core_0_LLC_total_access 2732351
Core_0_LLC_total_hit 1166991
Core_0_LLC_total_miss 1565360
Core_0_LLC_loads 419196
Core_0_LLC_load_hit 326068
Core_0_LLC_load_miss 93128
Core_0_LLC_RFOs 875104
Core_0_LLC_RFO_hit 121722
Core_0_LLC_RFO_miss 753382
Core_0_LLC_prefetches 416141
Core_0_LLC_prefetch_hit 365362
Core_0_LLC_prefetch_miss 50779
Core_0_LLC_writebacks 1021910
Core_0_LLC_writeback_hit 353839
Core_0_LLC_writeback_miss 668071
Core_0_LLC_prefetch_requested 0
Core_0_LLC_prefetch_dropped 0
Core_0_LLC_prefetch_issued 0
Core_0_LLC_prefetch_filled 64591
Core_0_LLC_prefetch_useful 40069
Core_0_LLC_prefetch_useless 22423
Core_0_LLC_prefetch_late 2489
Core_0_LLC_average_miss_latency 408.91238

Core_0_LLC_rq_access 1294301
Core_0_LLC_rq_forward 0
Core_0_LLC_rq_merged 0
Core_0_LLC_rq_to_cache 1294300
Core_0_LLC_rq_full 0

Core_0_LLC_wq_access 1021910
Core_0_LLC_wq_forward 1
Core_0_LLC_wq_merged 0
Core_0_LLC_wq_to_cache 1021910
Core_0_LLC_wq_full 0

Core_0_LLC_pq_access 478701
Core_0_LLC_pq_forward 0
Core_0_LLC_pq_merged 6305
Core_0_LLC_pq_to_cache 472396
Core_0_LLC_pq_full 0

Core_0_LLC_acc_epochs 1399758
Core_0_LLC_acc_level_0 1345420
Core_0_LLC_acc_level_1 19020
Core_0_LLC_acc_level_2 17950
Core_0_LLC_acc_level_3 820
Core_0_LLC_acc_level_4 153
Core_0_LLC_acc_level_5 14458
Core_0_LLC_acc_level_6 311
Core_0_LLC_acc_level_7 342
Core_0_LLC_acc_level_8 129
Core_0_LLC_acc_level_9 1155

Core_0_major_page_fault 0
Core_0_minor_page_fault 6639

spp.pref.total 1547889
spp.pref.at_L2 65308
spp.pref.at_LLC 1482581

spp.depth.max 11
spp.depth.min 0
spp.depth.avg 0

spp.breadth.max 2
spp.breadth.min 0
spp.breadth.avg 0

delta_1 1659456
delta_-1 19685
delta_7 13202
delta_2 11420
delta_8 6010
delta_4 5303
delta_-2 4547
delta_3 2473
delta_-6 727
delta_6 719
delta_-7 264
delta_9 258
delta_-5 95
delta_25 87
delta_-9 85
delta_13 50
delta_-24 46
delta_-25 46
delta_20 42
delta_-3 34
delta_26 13
delta_5 12
delta_-4 10
delta_-11 9
delta_-13 9
delta_-26 9
delta_-38 9
delta_-14 9
delta_-50 8
delta_-23 6
delta_11 3
delta_21 3
delta_-48 1
delta_14 1
delta_24 1

depth_1_delta_1 962370
depth_1_delta_7 12940
depth_1_delta_-1 12236
depth_1_delta_2 9893
depth_1_delta_8 5926
depth_1_delta_4 4352
depth_1_delta_-2 4103
depth_1_delta_3 2434
depth_1_delta_-6 727
depth_1_delta_6 460
depth_1_delta_-7 236
depth_1_delta_9 199
depth_1_delta_25 76
depth_1_delta_-5 62
depth_1_delta_13 50
depth_1_delta_-25 46
depth_1_delta_20 42
depth_1_delta_-24 38
depth_1_delta_-9 37
depth_1_delta_-3 23
depth_1_delta_5 12
depth_1_delta_26 12
depth_1_delta_-4 10
depth_1_delta_-11 9
depth_1_delta_-26 9
depth_1_delta_-38 9
depth_1_delta_-14 9
depth_1_delta_-13 8
depth_1_delta_-50 8
depth_1_delta_-23 6
depth_1_delta_11 3
depth_1_delta_21 3
depth_1_delta_-48 1
depth_1_delta_14 1
depth_1_delta_24 1
depth_2_delta_1 133957
depth_2_delta_-1 3842
depth_2_delta_2 1431
depth_2_delta_4 923
depth_2_delta_-2 396
depth_2_delta_7 218
depth_2_delta_6 133
depth_2_delta_8 84
depth_2_delta_9 52
depth_2_delta_3 39
depth_2_delta_-5 23
depth_2_delta_-9 19
depth_2_delta_-7 15
depth_2_delta_25 11
depth_2_delta_-3 9
depth_2_delta_-24 8
depth_2_delta_26 1
depth_2_delta_-13 1
depth_3_delta_1 110568
depth_3_delta_-1 1842
depth_3_delta_2 81
depth_3_delta_6 80
depth_3_delta_-2 43
depth_3_delta_4 28
depth_3_delta_7 26
depth_3_delta_-9 15
depth_3_delta_-7 9
depth_3_delta_-5 8
depth_3_delta_9 7
depth_3_delta_-3 2
depth_4_delta_1 103818
depth_4_delta_-1 811
depth_4_delta_6 34
depth_4_delta_7 13
depth_4_delta_2 12
depth_4_delta_-9 11
depth_4_delta_-2 5
depth_4_delta_-7 4
depth_4_delta_-5 2
depth_5_delta_1 99737
depth_5_delta_-1 455
depth_5_delta_6 11
depth_5_delta_7 5
depth_5_delta_-9 3
depth_5_delta_2 3
depth_6_delta_1 84129
depth_6_delta_-1 249
depth_6_delta_6 1
depth_7_delta_1 69126
depth_7_delta_-1 133
depth_8_delta_1 54616
depth_8_delta_-1 81
depth_9_delta_1 31627
depth_9_delta_-1 31
depth_10_delta_1 9424
depth_10_delta_-1 5
depth_11_delta_1 84

Channel_0_RQ_row_buffer_hit 221080
Channel_0_RQ_row_buffer_miss 676204
Channel_0_WQ_row_buffer_hit 209711
Channel_0_WQ_row_buffer_miss 643505
Channel_0_WQ_full 32784
Channel_0_dbus_congested 1425430

avg_congested_cycle 11

DRAM_bw_pochs 5599032
DRAM_bw_level_0 5460745
DRAM_bw_level_1 84411
DRAM_bw_level_2 43215
DRAM_bw_level_3 10661
