*************************************************
   ChampSim Multicore Out-of-Order Simulator
   Last compiled: Dec 11 2024 17:59:53
*************************************************
parsing config file: /home/functionmain/桌面/Pythia/config/spp_dev2.ini

trace_0 /home/functionmain/桌面/Pythia/traces/445.gobmk-30B.champsimtrace.xz
adding L2C_PREFETCHER: SPP_dev2
Initialize SIGNATURE TABLE
ST_SET: 1
ST_WAY: 256
ST_TAG_BIT: 16
ST_TAG_MASK: ffff

Initialize PATTERN TABLE
PT_SET: 512
PT_WAY: 4
SIG_DELTA_BIT: 7
C_SIG_BIT: 4
C_DELTA_BIT: 4

Initialize PREFETCH FILTER
FILTER_SET: 1024
fill_threshold: 90
pf_threshold: 40

Initialize SHIP state
warmup_instructions 100000000
simulation_instructions 500000000
champsim_seed 165
measure_ipc 0
measure_ipc_epoch 1000
measure_dram_bw 1
measure_dram_bw_epoch 256
measure_cache_acc 1
measure_cache_acc_epoch 1024
l1d_perfect 0
l2c_perfect 0
llc_perfect 0
l1d_semi_perfect 0
l2c_semi_perfect 0
llc_semi_perfect 0
semi_perfect_cache_page_buffer_size 64

num_cpus 1
cpu_freq 4000
dram_io_freq 1200
page_size 4096
block_size 64
max_read_per_cycle 8
max_fill_per_cycle 1
dram_channels 1
log2_dram_channels 0
dram_ranks 1
dram_banks 8
dram_rows 65536
dram_columns 128
dram_row_size 8
dram_size 4096
dram_pages 1048576

fetch_width 6
decode_width 6
exec_width 4
lq_width 2
sq_width 2
retire_width 4
scheduler_size 128
branch_mispredict_penalty 20
rob_size 256
lq_size 72
sq_size 56
num_instr_destinations_sparc 4
num_instr_destinations 2
num_instr_sources 4

itlb_set 16
itlb_way 8
itlb_rq_size 16
itlb_wq_size 16
itlb_pq_size 0
itlb_mshr_size 8
itlb_latency 1

dtlb_set 16
dtlb_way 4
dtlb_rq_size 16
dtlb_wq_size 16
dtlb_pq_size 0
dtlb_mshr_size 8
dtlb_latency 1

stlb_set 128
stlb_way 12
stlb_rq_size 32
stlb_wq_size 32
stlb_pq_size 0
stlb_mshr_size 16
stlb_latency 8

l1i_size 32
l1i_set 64
l1i_way 8
l1i_rq_size 64
l1i_wq_size 64
l1i_pq_size 8
l1i_mshr_size 8
l1i_latency 1

l1d_size 32
l1d_set 64
l1d_way 8
l1d_rq_size 64
l1d_wq_size 64
l1d_pq_size 8
l1d_mshr_size 16
l1d_latency 4

l2c_size 256
l2c_set 512
l2c_way 8
l2c_rq_size 32
l2c_wq_size 32
l2c_pq_size 32
l2c_mshr_size 32
l2c_latency 10

llc_size 2048
llc_set 2048
llc_way 16
llc_rq_size 32
llc_wq_size 32
llc_pq_size 32
llc_mshr_size 64
llc_latency 20

dram_channel_width 8
dram_wq_size 64
dram_rq_size 64
tRP 15
tRCD 15
tCAS 12.5
dram_dbus_turn_around_time 30
dram_write_high_wm 56
dram_write_low_wm 48
min_dram_writes_per_switch 16
dram_mtps 1200
dram_dbus_return_time 26


Heartbeat CPU  0 instructions:    1000000 cycles:     861985 heartbeat IPC: 1.16011 cumulative IPC: 1.16011 (Simulation time: 0 hr 0 min 1 sec) 
Heartbeat CPU  0 instructions:    2000000 cycles:    1864998 heartbeat IPC: 0.99700 cumulative IPC: 1.07239 (Simulation time: 0 hr 0 min 3 sec) 
Heartbeat CPU  0 instructions:    3000001 cycles:    2990805 heartbeat IPC: 0.88825 cumulative IPC: 1.00307 (Simulation time: 0 hr 0 min 4 sec) 
Heartbeat CPU  0 instructions:    4000000 cycles:    4091701 heartbeat IPC: 0.90835 cumulative IPC: 0.97759 (Simulation time: 0 hr 0 min 5 sec) 
Heartbeat CPU  0 instructions:    5000001 cycles:    5174027 heartbeat IPC: 0.92394 cumulative IPC: 0.96637 (Simulation time: 0 hr 0 min 7 sec) 
Heartbeat CPU  0 instructions:    6000000 cycles:    6296895 heartbeat IPC: 0.89058 cumulative IPC: 0.95285 (Simulation time: 0 hr 0 min 8 sec) 
Heartbeat CPU  0 instructions:    7000001 cycles:    7364166 heartbeat IPC: 0.93697 cumulative IPC: 0.95055 (Simulation time: 0 hr 0 min 10 sec) 
Heartbeat CPU  0 instructions:    8000000 cycles:    8566971 heartbeat IPC: 0.83139 cumulative IPC: 0.93382 (Simulation time: 0 hr 0 min 11 sec) 
Heartbeat CPU  0 instructions:    9000000 cycles:    9686425 heartbeat IPC: 0.89329 cumulative IPC: 0.92914 (Simulation time: 0 hr 0 min 13 sec) 
Heartbeat CPU  0 instructions:   10000003 cycles:   10816247 heartbeat IPC: 0.88510 cumulative IPC: 0.92454 (Simulation time: 0 hr 0 min 14 sec) 
Heartbeat CPU  0 instructions:   11000000 cycles:   11874015 heartbeat IPC: 0.94538 cumulative IPC: 0.92639 (Simulation time: 0 hr 0 min 15 sec) 
Heartbeat CPU  0 instructions:   12000000 cycles:   13018242 heartbeat IPC: 0.87395 cumulative IPC: 0.92178 (Simulation time: 0 hr 0 min 17 sec) 
Heartbeat CPU  0 instructions:   13000001 cycles:   14157728 heartbeat IPC: 0.87759 cumulative IPC: 0.91823 (Simulation time: 0 hr 0 min 18 sec) 
Heartbeat CPU  0 instructions:   14000000 cycles:   15084424 heartbeat IPC: 1.07910 cumulative IPC: 0.92811 (Simulation time: 0 hr 0 min 19 sec) 
Heartbeat CPU  0 instructions:   15000001 cycles:   16048488 heartbeat IPC: 1.03728 cumulative IPC: 0.93467 (Simulation time: 0 hr 0 min 21 sec) 
Heartbeat CPU  0 instructions:   16000000 cycles:   17177507 heartbeat IPC: 0.88572 cumulative IPC: 0.93145 (Simulation time: 0 hr 0 min 22 sec) 
Heartbeat CPU  0 instructions:   17000000 cycles:   18273067 heartbeat IPC: 0.91278 cumulative IPC: 0.93033 (Simulation time: 0 hr 0 min 24 sec) 
Heartbeat CPU  0 instructions:   18000003 cycles:   19389543 heartbeat IPC: 0.89568 cumulative IPC: 0.92834 (Simulation time: 0 hr 0 min 25 sec) 
Heartbeat CPU  0 instructions:   19000001 cycles:   20470731 heartbeat IPC: 0.92491 cumulative IPC: 0.92815 (Simulation time: 0 hr 0 min 26 sec) 
Heartbeat CPU  0 instructions:   20000000 cycles:   21562597 heartbeat IPC: 0.91586 cumulative IPC: 0.92753 (Simulation time: 0 hr 0 min 28 sec) 
Heartbeat CPU  0 instructions:   21000000 cycles:   22755071 heartbeat IPC: 0.83859 cumulative IPC: 0.92287 (Simulation time: 0 hr 0 min 29 sec) 
Heartbeat CPU  0 instructions:   22000003 cycles:   23882449 heartbeat IPC: 0.88702 cumulative IPC: 0.92118 (Simulation time: 0 hr 0 min 31 sec) 
Heartbeat CPU  0 instructions:   23000001 cycles:   24932580 heartbeat IPC: 0.95226 cumulative IPC: 0.92249 (Simulation time: 0 hr 0 min 32 sec) 
Heartbeat CPU  0 instructions:   24000000 cycles:   26049412 heartbeat IPC: 0.89539 cumulative IPC: 0.92133 (Simulation time: 0 hr 0 min 33 sec) 
Heartbeat CPU  0 instructions:   25000000 cycles:   26928654 heartbeat IPC: 1.13734 cumulative IPC: 0.92838 (Simulation time: 0 hr 0 min 35 sec) 
Heartbeat CPU  0 instructions:   26000000 cycles:   27898895 heartbeat IPC: 1.03067 cumulative IPC: 0.93194 (Simulation time: 0 hr 0 min 36 sec) 
Heartbeat CPU  0 instructions:   27000002 cycles:   29001582 heartbeat IPC: 0.90688 cumulative IPC: 0.93098 (Simulation time: 0 hr 0 min 37 sec) 
Heartbeat CPU  0 instructions:   28000000 cycles:   30122314 heartbeat IPC: 0.89227 cumulative IPC: 0.92954 (Simulation time: 0 hr 0 min 39 sec) 
Heartbeat CPU  0 instructions:   29000003 cycles:   31188369 heartbeat IPC: 0.93804 cumulative IPC: 0.92983 (Simulation time: 0 hr 0 min 40 sec) 
Heartbeat CPU  0 instructions:   30000002 cycles:   32280922 heartbeat IPC: 0.91529 cumulative IPC: 0.92934 (Simulation time: 0 hr 0 min 42 sec) 
Heartbeat CPU  0 instructions:   31000003 cycles:   33383337 heartbeat IPC: 0.90710 cumulative IPC: 0.92861 (Simulation time: 0 hr 0 min 43 sec) 
Heartbeat CPU  0 instructions:   32000000 cycles:   34483045 heartbeat IPC: 0.90933 cumulative IPC: 0.92799 (Simulation time: 0 hr 0 min 44 sec) 
Heartbeat CPU  0 instructions:   33000001 cycles:   35470331 heartbeat IPC: 1.01288 cumulative IPC: 0.93036 (Simulation time: 0 hr 0 min 46 sec) 
Heartbeat CPU  0 instructions:   34000001 cycles:   36608263 heartbeat IPC: 0.87879 cumulative IPC: 0.92875 (Simulation time: 0 hr 0 min 47 sec) 
Heartbeat CPU  0 instructions:   35000003 cycles:   37680614 heartbeat IPC: 0.93253 cumulative IPC: 0.92886 (Simulation time: 0 hr 0 min 49 sec) 
Heartbeat CPU  0 instructions:   36000000 cycles:   38872235 heartbeat IPC: 0.83919 cumulative IPC: 0.92611 (Simulation time: 0 hr 0 min 50 sec) 
Heartbeat CPU  0 instructions:   37000002 cycles:   39988264 heartbeat IPC: 0.89604 cumulative IPC: 0.92527 (Simulation time: 0 hr 0 min 51 sec) 
Heartbeat CPU  0 instructions:   38000000 cycles:   41038264 heartbeat IPC: 0.95238 cumulative IPC: 0.92597 (Simulation time: 0 hr 0 min 53 sec) 
Heartbeat CPU  0 instructions:   39000001 cycles:   41931809 heartbeat IPC: 1.11914 cumulative IPC: 0.93008 (Simulation time: 0 hr 0 min 54 sec) 
Heartbeat CPU  0 instructions:   40000000 cycles:   42889690 heartbeat IPC: 1.04397 cumulative IPC: 0.93263 (Simulation time: 0 hr 0 min 55 sec) 
Heartbeat CPU  0 instructions:   41000000 cycles:   43991062 heartbeat IPC: 0.90796 cumulative IPC: 0.93201 (Simulation time: 0 hr 0 min 57 sec) 
Heartbeat CPU  0 instructions:   42000000 cycles:   45116155 heartbeat IPC: 0.88882 cumulative IPC: 0.93093 (Simulation time: 0 hr 0 min 58 sec) 
Heartbeat CPU  0 instructions:   43000003 cycles:   46183786 heartbeat IPC: 0.93666 cumulative IPC: 0.93106 (Simulation time: 0 hr 1 min 0 sec) 
Heartbeat CPU  0 instructions:   44000000 cycles:   47303737 heartbeat IPC: 0.89289 cumulative IPC: 0.93016 (Simulation time: 0 hr 1 min 1 sec) 
Heartbeat CPU  0 instructions:   45000001 cycles:   48337483 heartbeat IPC: 0.96736 cumulative IPC: 0.93095 (Simulation time: 0 hr 1 min 2 sec) 
Heartbeat CPU  0 instructions:   46000000 cycles:   49423935 heartbeat IPC: 0.92043 cumulative IPC: 0.93072 (Simulation time: 0 hr 1 min 4 sec) 
Heartbeat CPU  0 instructions:   47000003 cycles:   50532252 heartbeat IPC: 0.90227 cumulative IPC: 0.93010 (Simulation time: 0 hr 1 min 5 sec) 
Heartbeat CPU  0 instructions:   48000000 cycles:   51501490 heartbeat IPC: 1.03174 cumulative IPC: 0.93201 (Simulation time: 0 hr 1 min 7 sec) 
Heartbeat CPU  0 instructions:   49000000 cycles:   52616056 heartbeat IPC: 0.89721 cumulative IPC: 0.93127 (Simulation time: 0 hr 1 min 8 sec) 
Heartbeat CPU  0 instructions:   50000000 cycles:   53700125 heartbeat IPC: 0.92245 cumulative IPC: 0.93110 (Simulation time: 0 hr 1 min 10 sec) 
Heartbeat CPU  0 instructions:   51000001 cycles:   54767502 heartbeat IPC: 0.93688 cumulative IPC: 0.93121 (Simulation time: 0 hr 1 min 11 sec) 
Heartbeat CPU  0 instructions:   52000000 cycles:   55897224 heartbeat IPC: 0.88517 cumulative IPC: 0.93028 (Simulation time: 0 hr 1 min 12 sec) 
Heartbeat CPU  0 instructions:   53000000 cycles:   57003812 heartbeat IPC: 0.90368 cumulative IPC: 0.92976 (Simulation time: 0 hr 1 min 14 sec) 
Heartbeat CPU  0 instructions:   54000001 cycles:   58200480 heartbeat IPC: 0.83565 cumulative IPC: 0.92783 (Simulation time: 0 hr 1 min 15 sec) 
Heartbeat CPU  0 instructions:   55000002 cycles:   59320192 heartbeat IPC: 0.89309 cumulative IPC: 0.92717 (Simulation time: 0 hr 1 min 17 sec) 
Heartbeat CPU  0 instructions:   56000000 cycles:   60386056 heartbeat IPC: 0.93820 cumulative IPC: 0.92737 (Simulation time: 0 hr 1 min 18 sec) 
Heartbeat CPU  0 instructions:   57000000 cycles:   61474124 heartbeat IPC: 0.91906 cumulative IPC: 0.92722 (Simulation time: 0 hr 1 min 19 sec) 
Heartbeat CPU  0 instructions:   58000001 cycles:   62563421 heartbeat IPC: 0.91802 cumulative IPC: 0.92706 (Simulation time: 0 hr 1 min 21 sec) 
Heartbeat CPU  0 instructions:   59000000 cycles:   63438160 heartbeat IPC: 1.14320 cumulative IPC: 0.93004 (Simulation time: 0 hr 1 min 22 sec) 
Heartbeat CPU  0 instructions:   60000000 cycles:   64557188 heartbeat IPC: 0.89363 cumulative IPC: 0.92941 (Simulation time: 0 hr 1 min 23 sec) 
Heartbeat CPU  0 instructions:   61000000 cycles:   65653480 heartbeat IPC: 0.91217 cumulative IPC: 0.92912 (Simulation time: 0 hr 1 min 25 sec) 
Heartbeat CPU  0 instructions:   62000000 cycles:   66731791 heartbeat IPC: 0.92738 cumulative IPC: 0.92909 (Simulation time: 0 hr 1 min 26 sec) 
Heartbeat CPU  0 instructions:   63000001 cycles:   67749194 heartbeat IPC: 0.98290 cumulative IPC: 0.92990 (Simulation time: 0 hr 1 min 28 sec) 
Heartbeat CPU  0 instructions:   64000000 cycles:   68871709 heartbeat IPC: 0.89086 cumulative IPC: 0.92926 (Simulation time: 0 hr 1 min 29 sec) 
Heartbeat CPU  0 instructions:   65000000 cycles:   69947117 heartbeat IPC: 0.92988 cumulative IPC: 0.92927 (Simulation time: 0 hr 1 min 30 sec) 
Heartbeat CPU  0 instructions:   66000000 cycles:   71003999 heartbeat IPC: 0.94618 cumulative IPC: 0.92953 (Simulation time: 0 hr 1 min 32 sec) 
Heartbeat CPU  0 instructions:   67000000 cycles:   72117566 heartbeat IPC: 0.89802 cumulative IPC: 0.92904 (Simulation time: 0 hr 1 min 33 sec) 
Heartbeat CPU  0 instructions:   68000000 cycles:   73206019 heartbeat IPC: 0.91874 cumulative IPC: 0.92889 (Simulation time: 0 hr 1 min 35 sec) 
Heartbeat CPU  0 instructions:   69000001 cycles:   74314681 heartbeat IPC: 0.90199 cumulative IPC: 0.92848 (Simulation time: 0 hr 1 min 36 sec) 
Heartbeat CPU  0 instructions:   70000000 cycles:   75287621 heartbeat IPC: 1.02781 cumulative IPC: 0.92977 (Simulation time: 0 hr 1 min 38 sec) 
Heartbeat CPU  0 instructions:   71000000 cycles:   76202676 heartbeat IPC: 1.09283 cumulative IPC: 0.93173 (Simulation time: 0 hr 1 min 39 sec) 
Heartbeat CPU  0 instructions:   72000000 cycles:   77302224 heartbeat IPC: 0.90946 cumulative IPC: 0.93141 (Simulation time: 0 hr 1 min 41 sec) 
Heartbeat CPU  0 instructions:   73000001 cycles:   78364359 heartbeat IPC: 0.94150 cumulative IPC: 0.93155 (Simulation time: 0 hr 1 min 42 sec) 
Heartbeat CPU  0 instructions:   74000000 cycles:   79431226 heartbeat IPC: 0.93732 cumulative IPC: 0.93162 (Simulation time: 0 hr 1 min 43 sec) 
Heartbeat CPU  0 instructions:   75000001 cycles:   80373772 heartbeat IPC: 1.06096 cumulative IPC: 0.93314 (Simulation time: 0 hr 1 min 45 sec) 
Heartbeat CPU  0 instructions:   76000000 cycles:   81361815 heartbeat IPC: 1.01210 cumulative IPC: 0.93410 (Simulation time: 0 hr 1 min 46 sec) 
Heartbeat CPU  0 instructions:   77000002 cycles:   82403460 heartbeat IPC: 0.96002 cumulative IPC: 0.93443 (Simulation time: 0 hr 1 min 48 sec) 
Heartbeat CPU  0 instructions:   78000000 cycles:   83354780 heartbeat IPC: 1.05117 cumulative IPC: 0.93576 (Simulation time: 0 hr 1 min 49 sec) 
Heartbeat CPU  0 instructions:   79000003 cycles:   84385471 heartbeat IPC: 0.97023 cumulative IPC: 0.93618 (Simulation time: 0 hr 1 min 51 sec) 
Heartbeat CPU  0 instructions:   80000000 cycles:   85451917 heartbeat IPC: 0.93769 cumulative IPC: 0.93620 (Simulation time: 0 hr 1 min 52 sec) 
Heartbeat CPU  0 instructions:   81000003 cycles:   86540407 heartbeat IPC: 0.91871 cumulative IPC: 0.93598 (Simulation time: 0 hr 1 min 53 sec) 
Heartbeat CPU  0 instructions:   82000000 cycles:   87615393 heartbeat IPC: 0.93024 cumulative IPC: 0.93591 (Simulation time: 0 hr 1 min 55 sec) 
Heartbeat CPU  0 instructions:   83000001 cycles:   88714619 heartbeat IPC: 0.90973 cumulative IPC: 0.93558 (Simulation time: 0 hr 1 min 56 sec) 
Heartbeat CPU  0 instructions:   84000000 cycles:   89753625 heartbeat IPC: 0.96246 cumulative IPC: 0.93590 (Simulation time: 0 hr 1 min 58 sec) 
Heartbeat CPU  0 instructions:   85000000 cycles:   90753305 heartbeat IPC: 1.00032 cumulative IPC: 0.93661 (Simulation time: 0 hr 1 min 59 sec) 
Heartbeat CPU  0 instructions:   86000000 cycles:   91839468 heartbeat IPC: 0.92067 cumulative IPC: 0.93642 (Simulation time: 0 hr 2 min 1 sec) 
Heartbeat CPU  0 instructions:   87000002 cycles:   92926293 heartbeat IPC: 0.92011 cumulative IPC: 0.93623 (Simulation time: 0 hr 2 min 2 sec) 
Heartbeat CPU  0 instructions:   88000000 cycles:   93996482 heartbeat IPC: 0.93441 cumulative IPC: 0.93621 (Simulation time: 0 hr 2 min 3 sec) 
Heartbeat CPU  0 instructions:   89000002 cycles:   95095848 heartbeat IPC: 0.90962 cumulative IPC: 0.93590 (Simulation time: 0 hr 2 min 5 sec) 
Heartbeat CPU  0 instructions:   90000002 cycles:   96183251 heartbeat IPC: 0.91962 cumulative IPC: 0.93571 (Simulation time: 0 hr 2 min 6 sec) 
Heartbeat CPU  0 instructions:   91000001 cycles:   97249754 heartbeat IPC: 0.93764 cumulative IPC: 0.93574 (Simulation time: 0 hr 2 min 8 sec) 
Heartbeat CPU  0 instructions:   92000000 cycles:   98368550 heartbeat IPC: 0.89382 cumulative IPC: 0.93526 (Simulation time: 0 hr 2 min 9 sec) 
Heartbeat CPU  0 instructions:   93000000 cycles:   99407910 heartbeat IPC: 0.96213 cumulative IPC: 0.93554 (Simulation time: 0 hr 2 min 10 sec) 
Heartbeat CPU  0 instructions:   94000001 cycles:  100526176 heartbeat IPC: 0.89424 cumulative IPC: 0.93508 (Simulation time: 0 hr 2 min 12 sec) 
Heartbeat CPU  0 instructions:   95000001 cycles:  101618218 heartbeat IPC: 0.91572 cumulative IPC: 0.93487 (Simulation time: 0 hr 2 min 13 sec) 
Heartbeat CPU  0 instructions:   96000000 cycles:  102708007 heartbeat IPC: 0.91761 cumulative IPC: 0.93469 (Simulation time: 0 hr 2 min 15 sec) 
Heartbeat CPU  0 instructions:   97000001 cycles:  103836286 heartbeat IPC: 0.88631 cumulative IPC: 0.93416 (Simulation time: 0 hr 2 min 16 sec) 
Heartbeat CPU  0 instructions:   98000000 cycles:  104935037 heartbeat IPC: 0.91012 cumulative IPC: 0.93391 (Simulation time: 0 hr 2 min 17 sec) 
Heartbeat CPU  0 instructions:   99000003 cycles:  106006636 heartbeat IPC: 0.93319 cumulative IPC: 0.93390 (Simulation time: 0 hr 2 min 19 sec) 
Heartbeat CPU  0 instructions:  100000000 cycles:  107092208 heartbeat IPC: 0.92117 cumulative IPC: 0.93377 (Simulation time: 0 hr 2 min 20 sec) 

Warmup complete CPU  0 instructions:  100000001 cycles:  107092210 (Simulation time: 0 hr 2 min 20 sec) 

Heartbeat CPU  0 instructions:  101000000 cycles:  109769303 heartbeat IPC: 0.37354 cumulative IPC: 0.37354 (Simulation time: 0 hr 2 min 22 sec) 
Heartbeat CPU  0 instructions:  102000000 cycles:  112424404 heartbeat IPC: 0.37663 cumulative IPC: 0.37508 (Simulation time: 0 hr 2 min 25 sec) 
Heartbeat CPU  0 instructions:  103000000 cycles:  115083105 heartbeat IPC: 0.37612 cumulative IPC: 0.37543 (Simulation time: 0 hr 2 min 27 sec) 
Heartbeat CPU  0 instructions:  104000000 cycles:  117647596 heartbeat IPC: 0.38994 cumulative IPC: 0.37895 (Simulation time: 0 hr 2 min 29 sec) 
Heartbeat CPU  0 instructions:  105000003 cycles:  120386520 heartbeat IPC: 0.36511 cumulative IPC: 0.37610 (Simulation time: 0 hr 2 min 31 sec) 
Heartbeat CPU  0 instructions:  106000001 cycles:  123083682 heartbeat IPC: 0.37076 cumulative IPC: 0.37520 (Simulation time: 0 hr 2 min 33 sec) 
Heartbeat CPU  0 instructions:  107000003 cycles:  125784886 heartbeat IPC: 0.37021 cumulative IPC: 0.37448 (Simulation time: 0 hr 2 min 36 sec) 
Heartbeat CPU  0 instructions:  108000000 cycles:  128610433 heartbeat IPC: 0.35391 cumulative IPC: 0.37178 (Simulation time: 0 hr 2 min 38 sec) 
Heartbeat CPU  0 instructions:  109000000 cycles:  131406388 heartbeat IPC: 0.35766 cumulative IPC: 0.37015 (Simulation time: 0 hr 2 min 40 sec) 
Heartbeat CPU  0 instructions:  110000002 cycles:  134086045 heartbeat IPC: 0.37318 cumulative IPC: 0.37045 (Simulation time: 0 hr 2 min 42 sec) 
Heartbeat CPU  0 instructions:  111000002 cycles:  136667024 heartbeat IPC: 0.38745 cumulative IPC: 0.37194 (Simulation time: 0 hr 2 min 45 sec) 
Heartbeat CPU  0 instructions:  112000000 cycles:  139423509 heartbeat IPC: 0.36278 cumulative IPC: 0.37116 (Simulation time: 0 hr 2 min 47 sec) 
Heartbeat CPU  0 instructions:  113000001 cycles:  142283047 heartbeat IPC: 0.34971 cumulative IPC: 0.36941 (Simulation time: 0 hr 2 min 49 sec) 
Heartbeat CPU  0 instructions:  114000000 cycles:  145108580 heartbeat IPC: 0.35392 cumulative IPC: 0.36826 (Simulation time: 0 hr 2 min 51 sec) 
Heartbeat CPU  0 instructions:  115000000 cycles:  147825314 heartbeat IPC: 0.36809 cumulative IPC: 0.36825 (Simulation time: 0 hr 2 min 54 sec) 
Heartbeat CPU  0 instructions:  116000000 cycles:  150595832 heartbeat IPC: 0.36094 cumulative IPC: 0.36779 (Simulation time: 0 hr 2 min 56 sec) 
Heartbeat CPU  0 instructions:  117000002 cycles:  153328816 heartbeat IPC: 0.36590 cumulative IPC: 0.36767 (Simulation time: 0 hr 2 min 58 sec) 
Heartbeat CPU  0 instructions:  118000000 cycles:  156077962 heartbeat IPC: 0.36375 cumulative IPC: 0.36745 (Simulation time: 0 hr 3 min 1 sec) 
Heartbeat CPU  0 instructions:  119000000 cycles:  158836810 heartbeat IPC: 0.36247 cumulative IPC: 0.36719 (Simulation time: 0 hr 3 min 3 sec) 
Heartbeat CPU  0 instructions:  120000000 cycles:  161673576 heartbeat IPC: 0.35251 cumulative IPC: 0.36643 (Simulation time: 0 hr 3 min 5 sec) 
Heartbeat CPU  0 instructions:  121000000 cycles:  164388803 heartbeat IPC: 0.36829 cumulative IPC: 0.36651 (Simulation time: 0 hr 3 min 7 sec) 
Heartbeat CPU  0 instructions:  122000001 cycles:  167135841 heartbeat IPC: 0.36403 cumulative IPC: 0.36640 (Simulation time: 0 hr 3 min 10 sec) 
Heartbeat CPU  0 instructions:  123000001 cycles:  169829004 heartbeat IPC: 0.37131 cumulative IPC: 0.36661 (Simulation time: 0 hr 3 min 12 sec) 
Heartbeat CPU  0 instructions:  124000000 cycles:  172470719 heartbeat IPC: 0.37854 cumulative IPC: 0.36709 (Simulation time: 0 hr 3 min 14 sec) 
Heartbeat CPU  0 instructions:  125000003 cycles:  175103303 heartbeat IPC: 0.37986 cumulative IPC: 0.36759 (Simulation time: 0 hr 3 min 16 sec) 
Heartbeat CPU  0 instructions:  126000000 cycles:  177759630 heartbeat IPC: 0.37646 cumulative IPC: 0.36792 (Simulation time: 0 hr 3 min 18 sec) 
Heartbeat CPU  0 instructions:  127000001 cycles:  180625672 heartbeat IPC: 0.34891 cumulative IPC: 0.36718 (Simulation time: 0 hr 3 min 21 sec) 
Heartbeat CPU  0 instructions:  128000000 cycles:  183335747 heartbeat IPC: 0.36899 cumulative IPC: 0.36724 (Simulation time: 0 hr 3 min 23 sec) 
Heartbeat CPU  0 instructions:  129000001 cycles:  186186462 heartbeat IPC: 0.35079 cumulative IPC: 0.36665 (Simulation time: 0 hr 3 min 25 sec) 
Heartbeat CPU  0 instructions:  130000000 cycles:  189040288 heartbeat IPC: 0.35041 cumulative IPC: 0.36609 (Simulation time: 0 hr 3 min 27 sec) 
Heartbeat CPU  0 instructions:  131000000 cycles:  191787208 heartbeat IPC: 0.36404 cumulative IPC: 0.36602 (Simulation time: 0 hr 3 min 30 sec) 
Heartbeat CPU  0 instructions:  132000000 cycles:  194543420 heartbeat IPC: 0.36282 cumulative IPC: 0.36592 (Simulation time: 0 hr 3 min 32 sec) 
Heartbeat CPU  0 instructions:  133000001 cycles:  197257444 heartbeat IPC: 0.36846 cumulative IPC: 0.36599 (Simulation time: 0 hr 3 min 34 sec) 
Heartbeat CPU  0 instructions:  134000000 cycles:  200014140 heartbeat IPC: 0.36275 cumulative IPC: 0.36590 (Simulation time: 0 hr 3 min 36 sec) 
Heartbeat CPU  0 instructions:  135000000 cycles:  202800599 heartbeat IPC: 0.35888 cumulative IPC: 0.36569 (Simulation time: 0 hr 3 min 39 sec) 
Heartbeat CPU  0 instructions:  136000000 cycles:  205578227 heartbeat IPC: 0.36002 cumulative IPC: 0.36553 (Simulation time: 0 hr 3 min 41 sec) 
Heartbeat CPU  0 instructions:  137000000 cycles:  208312084 heartbeat IPC: 0.36578 cumulative IPC: 0.36554 (Simulation time: 0 hr 3 min 43 sec) 
Heartbeat CPU  0 instructions:  138000000 cycles:  210906043 heartbeat IPC: 0.38551 cumulative IPC: 0.36604 (Simulation time: 0 hr 3 min 45 sec) 
Heartbeat CPU  0 instructions:  139000002 cycles:  213568965 heartbeat IPC: 0.37553 cumulative IPC: 0.36628 (Simulation time: 0 hr 3 min 48 sec) 
Heartbeat CPU  0 instructions:  140000000 cycles:  216309302 heartbeat IPC: 0.36492 cumulative IPC: 0.36624 (Simulation time: 0 hr 3 min 50 sec) 
Heartbeat CPU  0 instructions:  141000003 cycles:  219043764 heartbeat IPC: 0.36570 cumulative IPC: 0.36623 (Simulation time: 0 hr 3 min 52 sec) 
Heartbeat CPU  0 instructions:  142000000 cycles:  221716904 heartbeat IPC: 0.37409 cumulative IPC: 0.36641 (Simulation time: 0 hr 3 min 54 sec) 
Heartbeat CPU  0 instructions:  143000001 cycles:  224369219 heartbeat IPC: 0.37703 cumulative IPC: 0.36665 (Simulation time: 0 hr 3 min 57 sec) 
Heartbeat CPU  0 instructions:  144000000 cycles:  225983502 heartbeat IPC: 0.61947 cumulative IPC: 0.37009 (Simulation time: 0 hr 3 min 59 sec) 
Heartbeat CPU  0 instructions:  145000002 cycles:  227025222 heartbeat IPC: 0.95995 cumulative IPC: 0.37521 (Simulation time: 0 hr 4 min 2 sec) 
Heartbeat CPU  0 instructions:  146000000 cycles:  228448978 heartbeat IPC: 0.70237 cumulative IPC: 0.37905 (Simulation time: 0 hr 4 min 4 sec) 
Heartbeat CPU  0 instructions:  147000001 cycles:  229895805 heartbeat IPC: 0.69117 cumulative IPC: 0.38272 (Simulation time: 0 hr 4 min 7 sec) 
Heartbeat CPU  0 instructions:  148000000 cycles:  231552302 heartbeat IPC: 0.60368 cumulative IPC: 0.38567 (Simulation time: 0 hr 4 min 11 sec) 
Heartbeat CPU  0 instructions:  149000000 cycles:  234545097 heartbeat IPC: 0.33414 cumulative IPC: 0.38446 (Simulation time: 0 hr 4 min 15 sec) 
Heartbeat CPU  0 instructions:  150000001 cycles:  237864836 heartbeat IPC: 0.30123 cumulative IPC: 0.38234 (Simulation time: 0 hr 4 min 19 sec) 
Heartbeat CPU  0 instructions:  151000001 cycles:  241394884 heartbeat IPC: 0.28328 cumulative IPC: 0.37974 (Simulation time: 0 hr 4 min 24 sec) 
Heartbeat CPU  0 instructions:  152000000 cycles:  245624360 heartbeat IPC: 0.23644 cumulative IPC: 0.37536 (Simulation time: 0 hr 4 min 29 sec) 
Heartbeat CPU  0 instructions:  153000001 cycles:  250692274 heartbeat IPC: 0.19732 cumulative IPC: 0.36908 (Simulation time: 0 hr 4 min 34 sec) 
Heartbeat CPU  0 instructions:  154000003 cycles:  255982123 heartbeat IPC: 0.18904 cumulative IPC: 0.36268 (Simulation time: 0 hr 4 min 40 sec) 
Heartbeat CPU  0 instructions:  155000003 cycles:  258363980 heartbeat IPC: 0.41984 cumulative IPC: 0.36358 (Simulation time: 0 hr 4 min 44 sec) 
Heartbeat CPU  0 instructions:  156000000 cycles:  260103537 heartbeat IPC: 0.57486 cumulative IPC: 0.36599 (Simulation time: 0 hr 4 min 47 sec) 
Heartbeat CPU  0 instructions:  157000001 cycles:  261843409 heartbeat IPC: 0.57476 cumulative IPC: 0.36833 (Simulation time: 0 hr 4 min 50 sec) 
Heartbeat CPU  0 instructions:  158000002 cycles:  263686502 heartbeat IPC: 0.54257 cumulative IPC: 0.37038 (Simulation time: 0 hr 4 min 53 sec) 
Heartbeat CPU  0 instructions:  159000002 cycles:  267229612 heartbeat IPC: 0.28224 cumulative IPC: 0.36843 (Simulation time: 0 hr 4 min 58 sec) 
Heartbeat CPU  0 instructions:  160000000 cycles:  270743938 heartbeat IPC: 0.28455 cumulative IPC: 0.36663 (Simulation time: 0 hr 5 min 2 sec) 
Heartbeat CPU  0 instructions:  161000003 cycles:  274258631 heartbeat IPC: 0.28452 cumulative IPC: 0.36491 (Simulation time: 0 hr 5 min 7 sec) 
Heartbeat CPU  0 instructions:  162000000 cycles:  279046225 heartbeat IPC: 0.20887 cumulative IPC: 0.36056 (Simulation time: 0 hr 5 min 12 sec) 
Heartbeat CPU  0 instructions:  163000002 cycles:  284254669 heartbeat IPC: 0.19200 cumulative IPC: 0.35561 (Simulation time: 0 hr 5 min 18 sec) 
Heartbeat CPU  0 instructions:  164000000 cycles:  288706051 heartbeat IPC: 0.22465 cumulative IPC: 0.35240 (Simulation time: 0 hr 5 min 23 sec) 
Heartbeat CPU  0 instructions:  165000003 cycles:  291456148 heartbeat IPC: 0.36362 cumulative IPC: 0.35256 (Simulation time: 0 hr 5 min 25 sec) 
Heartbeat CPU  0 instructions:  166000000 cycles:  294292737 heartbeat IPC: 0.35254 cumulative IPC: 0.35256 (Simulation time: 0 hr 5 min 28 sec) 
Heartbeat CPU  0 instructions:  167000002 cycles:  297079748 heartbeat IPC: 0.35881 cumulative IPC: 0.35265 (Simulation time: 0 hr 5 min 30 sec) 
Heartbeat CPU  0 instructions:  168000000 cycles:  299860106 heartbeat IPC: 0.35967 cumulative IPC: 0.35276 (Simulation time: 0 hr 5 min 32 sec) 
Heartbeat CPU  0 instructions:  169000000 cycles:  302673786 heartbeat IPC: 0.35541 cumulative IPC: 0.35279 (Simulation time: 0 hr 5 min 34 sec) 
Heartbeat CPU  0 instructions:  170000003 cycles:  305462126 heartbeat IPC: 0.35864 cumulative IPC: 0.35288 (Simulation time: 0 hr 5 min 37 sec) 
Heartbeat CPU  0 instructions:  171000000 cycles:  308172181 heartbeat IPC: 0.36900 cumulative IPC: 0.35309 (Simulation time: 0 hr 5 min 39 sec) 
Heartbeat CPU  0 instructions:  172000000 cycles:  310952624 heartbeat IPC: 0.35965 cumulative IPC: 0.35318 (Simulation time: 0 hr 5 min 41 sec) 
Heartbeat CPU  0 instructions:  173000000 cycles:  313648738 heartbeat IPC: 0.37090 cumulative IPC: 0.35341 (Simulation time: 0 hr 5 min 43 sec) 
Heartbeat CPU  0 instructions:  174000000 cycles:  316433718 heartbeat IPC: 0.35907 cumulative IPC: 0.35349 (Simulation time: 0 hr 5 min 46 sec) 
Heartbeat CPU  0 instructions:  175000001 cycles:  319212080 heartbeat IPC: 0.35992 cumulative IPC: 0.35357 (Simulation time: 0 hr 5 min 48 sec) 
Heartbeat CPU  0 instructions:  176000000 cycles:  321999927 heartbeat IPC: 0.35870 cumulative IPC: 0.35364 (Simulation time: 0 hr 5 min 50 sec) 
Heartbeat CPU  0 instructions:  177000000 cycles:  324787577 heartbeat IPC: 0.35873 cumulative IPC: 0.35371 (Simulation time: 0 hr 5 min 52 sec) 
Heartbeat CPU  0 instructions:  178000001 cycles:  327513073 heartbeat IPC: 0.36691 cumulative IPC: 0.35387 (Simulation time: 0 hr 5 min 55 sec) 
Heartbeat CPU  0 instructions:  179000003 cycles:  330132085 heartbeat IPC: 0.38182 cumulative IPC: 0.35420 (Simulation time: 0 hr 5 min 57 sec) 
Heartbeat CPU  0 instructions:  180000000 cycles:  332883359 heartbeat IPC: 0.36347 cumulative IPC: 0.35431 (Simulation time: 0 hr 5 min 59 sec) 
Heartbeat CPU  0 instructions:  181000000 cycles:  335372224 heartbeat IPC: 0.40179 cumulative IPC: 0.35483 (Simulation time: 0 hr 6 min 1 sec) 
Heartbeat CPU  0 instructions:  182000000 cycles:  338059268 heartbeat IPC: 0.37216 cumulative IPC: 0.35503 (Simulation time: 0 hr 6 min 4 sec) 
Heartbeat CPU  0 instructions:  183000000 cycles:  340644690 heartbeat IPC: 0.38678 cumulative IPC: 0.35538 (Simulation time: 0 hr 6 min 6 sec) 
Heartbeat CPU  0 instructions:  184000000 cycles:  343126841 heartbeat IPC: 0.40288 cumulative IPC: 0.35588 (Simulation time: 0 hr 6 min 8 sec) 
Heartbeat CPU  0 instructions:  185000000 cycles:  345747948 heartbeat IPC: 0.38152 cumulative IPC: 0.35616 (Simulation time: 0 hr 6 min 10 sec) 
Heartbeat CPU  0 instructions:  186000000 cycles:  348458384 heartbeat IPC: 0.36894 cumulative IPC: 0.35631 (Simulation time: 0 hr 6 min 12 sec) 
Heartbeat CPU  0 instructions:  187000000 cycles:  351043829 heartbeat IPC: 0.38678 cumulative IPC: 0.35663 (Simulation time: 0 hr 6 min 15 sec) 
Heartbeat CPU  0 instructions:  188000000 cycles:  353443042 heartbeat IPC: 0.41680 cumulative IPC: 0.35721 (Simulation time: 0 hr 6 min 17 sec) 
Heartbeat CPU  0 instructions:  189000000 cycles:  356087944 heartbeat IPC: 0.37809 cumulative IPC: 0.35744 (Simulation time: 0 hr 6 min 19 sec) 
Heartbeat CPU  0 instructions:  190000000 cycles:  358651858 heartbeat IPC: 0.39003 cumulative IPC: 0.35777 (Simulation time: 0 hr 6 min 22 sec) 
Heartbeat CPU  0 instructions:  191000001 cycles:  361278136 heartbeat IPC: 0.38077 cumulative IPC: 0.35801 (Simulation time: 0 hr 6 min 24 sec) 
Heartbeat CPU  0 instructions:  192000000 cycles:  363875523 heartbeat IPC: 0.38500 cumulative IPC: 0.35828 (Simulation time: 0 hr 6 min 26 sec) 
Heartbeat CPU  0 instructions:  193000001 cycles:  366424336 heartbeat IPC: 0.39234 cumulative IPC: 0.35861 (Simulation time: 0 hr 6 min 29 sec) 
Heartbeat CPU  0 instructions:  194000000 cycles:  368470283 heartbeat IPC: 0.48877 cumulative IPC: 0.35963 (Simulation time: 0 hr 6 min 31 sec) 
Heartbeat CPU  0 instructions:  195000000 cycles:  371102218 heartbeat IPC: 0.37995 cumulative IPC: 0.35983 (Simulation time: 0 hr 6 min 33 sec) 
Heartbeat CPU  0 instructions:  196000000 cycles:  373724826 heartbeat IPC: 0.38130 cumulative IPC: 0.36005 (Simulation time: 0 hr 6 min 35 sec) 
Heartbeat CPU  0 instructions:  197000002 cycles:  376290868 heartbeat IPC: 0.38971 cumulative IPC: 0.36033 (Simulation time: 0 hr 6 min 38 sec) 
Heartbeat CPU  0 instructions:  198000000 cycles:  378821762 heartbeat IPC: 0.39512 cumulative IPC: 0.36065 (Simulation time: 0 hr 6 min 40 sec) 
Heartbeat CPU  0 instructions:  199000000 cycles:  381344192 heartbeat IPC: 0.39644 cumulative IPC: 0.36098 (Simulation time: 0 hr 6 min 43 sec) 
Heartbeat CPU  0 instructions:  200000000 cycles:  383921608 heartbeat IPC: 0.38799 cumulative IPC: 0.36123 (Simulation time: 0 hr 6 min 45 sec) 
Heartbeat CPU  0 instructions:  201000002 cycles:  386598980 heartbeat IPC: 0.37350 cumulative IPC: 0.36135 (Simulation time: 0 hr 6 min 47 sec) 
Heartbeat CPU  0 instructions:  202000001 cycles:  389310867 heartbeat IPC: 0.36875 cumulative IPC: 0.36142 (Simulation time: 0 hr 6 min 50 sec) 
Heartbeat CPU  0 instructions:  203000000 cycles:  391897909 heartbeat IPC: 0.38654 cumulative IPC: 0.36165 (Simulation time: 0 hr 6 min 52 sec) 
Heartbeat CPU  0 instructions:  204000000 cycles:  394434776 heartbeat IPC: 0.39419 cumulative IPC: 0.36194 (Simulation time: 0 hr 6 min 54 sec) 
Heartbeat CPU  0 instructions:  205000002 cycles:  397065467 heartbeat IPC: 0.38013 cumulative IPC: 0.36210 (Simulation time: 0 hr 6 min 57 sec) 
Heartbeat CPU  0 instructions:  206000001 cycles:  399602519 heartbeat IPC: 0.39416 cumulative IPC: 0.36238 (Simulation time: 0 hr 6 min 59 sec) 
Heartbeat CPU  0 instructions:  207000000 cycles:  402184197 heartbeat IPC: 0.38734 cumulative IPC: 0.36260 (Simulation time: 0 hr 7 min 1 sec) 
Heartbeat CPU  0 instructions:  208000000 cycles:  405006971 heartbeat IPC: 0.35426 cumulative IPC: 0.36252 (Simulation time: 0 hr 7 min 4 sec) 
Heartbeat CPU  0 instructions:  209000003 cycles:  407841961 heartbeat IPC: 0.35274 cumulative IPC: 0.36243 (Simulation time: 0 hr 7 min 6 sec) 
Heartbeat CPU  0 instructions:  210000000 cycles:  410453965 heartbeat IPC: 0.38285 cumulative IPC: 0.36260 (Simulation time: 0 hr 7 min 9 sec) 
Heartbeat CPU  0 instructions:  211000000 cycles:  413325177 heartbeat IPC: 0.34828 cumulative IPC: 0.36247 (Simulation time: 0 hr 7 min 11 sec) 
Heartbeat CPU  0 instructions:  212000000 cycles:  416030867 heartbeat IPC: 0.36959 cumulative IPC: 0.36253 (Simulation time: 0 hr 7 min 14 sec) 
Heartbeat CPU  0 instructions:  213000002 cycles:  418781220 heartbeat IPC: 0.36359 cumulative IPC: 0.36254 (Simulation time: 0 hr 7 min 16 sec) 
Heartbeat CPU  0 instructions:  214000000 cycles:  421597597 heartbeat IPC: 0.35507 cumulative IPC: 0.36247 (Simulation time: 0 hr 7 min 19 sec) 
Heartbeat CPU  0 instructions:  215000001 cycles:  424396705 heartbeat IPC: 0.35726 cumulative IPC: 0.36243 (Simulation time: 0 hr 7 min 21 sec) 
Heartbeat CPU  0 instructions:  216000000 cycles:  427173306 heartbeat IPC: 0.36015 cumulative IPC: 0.36241 (Simulation time: 0 hr 7 min 24 sec) 
Heartbeat CPU  0 instructions:  217000000 cycles:  429962120 heartbeat IPC: 0.35858 cumulative IPC: 0.36238 (Simulation time: 0 hr 7 min 26 sec) 
Heartbeat CPU  0 instructions:  218000002 cycles:  432752825 heartbeat IPC: 0.35833 cumulative IPC: 0.36234 (Simulation time: 0 hr 7 min 28 sec) 
Heartbeat CPU  0 instructions:  219000000 cycles:  435519938 heartbeat IPC: 0.36139 cumulative IPC: 0.36233 (Simulation time: 0 hr 7 min 31 sec) 
Heartbeat CPU  0 instructions:  220000000 cycles:  438264086 heartbeat IPC: 0.36441 cumulative IPC: 0.36235 (Simulation time: 0 hr 7 min 33 sec) 
Heartbeat CPU  0 instructions:  221000003 cycles:  441076724 heartbeat IPC: 0.35554 cumulative IPC: 0.36229 (Simulation time: 0 hr 7 min 36 sec) 
Heartbeat CPU  0 instructions:  222000003 cycles:  443863285 heartbeat IPC: 0.35887 cumulative IPC: 0.36226 (Simulation time: 0 hr 7 min 38 sec) 
Heartbeat CPU  0 instructions:  223000000 cycles:  446593667 heartbeat IPC: 0.36625 cumulative IPC: 0.36230 (Simulation time: 0 hr 7 min 40 sec) 
Heartbeat CPU  0 instructions:  224000000 cycles:  449309829 heartbeat IPC: 0.36817 cumulative IPC: 0.36234 (Simulation time: 0 hr 7 min 43 sec) 
Heartbeat CPU  0 instructions:  225000000 cycles:  451949125 heartbeat IPC: 0.37889 cumulative IPC: 0.36247 (Simulation time: 0 hr 7 min 45 sec) 
Heartbeat CPU  0 instructions:  226000002 cycles:  454688389 heartbeat IPC: 0.36506 cumulative IPC: 0.36249 (Simulation time: 0 hr 7 min 48 sec) 
Heartbeat CPU  0 instructions:  227000000 cycles:  457428128 heartbeat IPC: 0.36500 cumulative IPC: 0.36251 (Simulation time: 0 hr 7 min 50 sec) 
Heartbeat CPU  0 instructions:  228000000 cycles:  460121782 heartbeat IPC: 0.37124 cumulative IPC: 0.36258 (Simulation time: 0 hr 7 min 52 sec) 
Heartbeat CPU  0 instructions:  229000003 cycles:  462928778 heartbeat IPC: 0.35625 cumulative IPC: 0.36253 (Simulation time: 0 hr 7 min 55 sec) 
Heartbeat CPU  0 instructions:  230000003 cycles:  465724257 heartbeat IPC: 0.35772 cumulative IPC: 0.36249 (Simulation time: 0 hr 7 min 57 sec) 
Heartbeat CPU  0 instructions:  231000000 cycles:  468512580 heartbeat IPC: 0.35864 cumulative IPC: 0.36246 (Simulation time: 0 hr 7 min 59 sec) 
Heartbeat CPU  0 instructions:  232000000 cycles:  471234495 heartbeat IPC: 0.36739 cumulative IPC: 0.36250 (Simulation time: 0 hr 8 min 2 sec) 
Heartbeat CPU  0 instructions:  233000001 cycles:  473973225 heartbeat IPC: 0.36513 cumulative IPC: 0.36252 (Simulation time: 0 hr 8 min 4 sec) 
Heartbeat CPU  0 instructions:  234000000 cycles:  476712239 heartbeat IPC: 0.36509 cumulative IPC: 0.36253 (Simulation time: 0 hr 8 min 7 sec) 
Heartbeat CPU  0 instructions:  235000000 cycles:  479432751 heartbeat IPC: 0.36758 cumulative IPC: 0.36257 (Simulation time: 0 hr 8 min 9 sec) 
Heartbeat CPU  0 instructions:  236000000 cycles:  481905546 heartbeat IPC: 0.40440 cumulative IPC: 0.36285 (Simulation time: 0 hr 8 min 11 sec) 
Heartbeat CPU  0 instructions:  237000001 cycles:  484249695 heartbeat IPC: 0.42659 cumulative IPC: 0.36324 (Simulation time: 0 hr 8 min 13 sec) 
Heartbeat CPU  0 instructions:  238000000 cycles:  486800046 heartbeat IPC: 0.39210 cumulative IPC: 0.36344 (Simulation time: 0 hr 8 min 16 sec) 
Heartbeat CPU  0 instructions:  239000000 cycles:  489568411 heartbeat IPC: 0.36122 cumulative IPC: 0.36342 (Simulation time: 0 hr 8 min 18 sec) 
Heartbeat CPU  0 instructions:  240000000 cycles:  492241879 heartbeat IPC: 0.37405 cumulative IPC: 0.36350 (Simulation time: 0 hr 8 min 20 sec) 
Heartbeat CPU  0 instructions:  241000000 cycles:  494945724 heartbeat IPC: 0.36984 cumulative IPC: 0.36354 (Simulation time: 0 hr 8 min 23 sec) 
Heartbeat CPU  0 instructions:  242000003 cycles:  497781697 heartbeat IPC: 0.35261 cumulative IPC: 0.36346 (Simulation time: 0 hr 8 min 25 sec) 
Heartbeat CPU  0 instructions:  243000001 cycles:  500550873 heartbeat IPC: 0.36112 cumulative IPC: 0.36344 (Simulation time: 0 hr 8 min 28 sec) 
Heartbeat CPU  0 instructions:  244000000 cycles:  503165716 heartbeat IPC: 0.38243 cumulative IPC: 0.36357 (Simulation time: 0 hr 8 min 30 sec) 
Heartbeat CPU  0 instructions:  245000000 cycles:  505726787 heartbeat IPC: 0.39046 cumulative IPC: 0.36374 (Simulation time: 0 hr 8 min 32 sec) 
Heartbeat CPU  0 instructions:  246000001 cycles:  508468228 heartbeat IPC: 0.36477 cumulative IPC: 0.36375 (Simulation time: 0 hr 8 min 35 sec) 
Heartbeat CPU  0 instructions:  247000002 cycles:  511124151 heartbeat IPC: 0.37652 cumulative IPC: 0.36383 (Simulation time: 0 hr 8 min 37 sec) 
Heartbeat CPU  0 instructions:  248000000 cycles:  513712500 heartbeat IPC: 0.38635 cumulative IPC: 0.36398 (Simulation time: 0 hr 8 min 39 sec) 
Heartbeat CPU  0 instructions:  249000003 cycles:  516267653 heartbeat IPC: 0.39137 cumulative IPC: 0.36415 (Simulation time: 0 hr 8 min 42 sec) 
Heartbeat CPU  0 instructions:  250000000 cycles:  518670982 heartbeat IPC: 0.41609 cumulative IPC: 0.36445 (Simulation time: 0 hr 8 min 44 sec) 
Heartbeat CPU  0 instructions:  251000002 cycles:  521392734 heartbeat IPC: 0.36741 cumulative IPC: 0.36447 (Simulation time: 0 hr 8 min 46 sec) 
Heartbeat CPU  0 instructions:  252000000 cycles:  524104483 heartbeat IPC: 0.36876 cumulative IPC: 0.36450 (Simulation time: 0 hr 8 min 49 sec) 
Heartbeat CPU  0 instructions:  253000000 cycles:  526914792 heartbeat IPC: 0.35583 cumulative IPC: 0.36444 (Simulation time: 0 hr 8 min 51 sec) 
Heartbeat CPU  0 instructions:  254000002 cycles:  529639910 heartbeat IPC: 0.36696 cumulative IPC: 0.36446 (Simulation time: 0 hr 8 min 53 sec) 
Heartbeat CPU  0 instructions:  255000001 cycles:  532372845 heartbeat IPC: 0.36591 cumulative IPC: 0.36447 (Simulation time: 0 hr 8 min 56 sec) 
Heartbeat CPU  0 instructions:  256000000 cycles:  535108149 heartbeat IPC: 0.36559 cumulative IPC: 0.36447 (Simulation time: 0 hr 8 min 58 sec) 
Heartbeat CPU  0 instructions:  257000000 cycles:  537832352 heartbeat IPC: 0.36708 cumulative IPC: 0.36449 (Simulation time: 0 hr 9 min 0 sec) 
Heartbeat CPU  0 instructions:  258000000 cycles:  540546810 heartbeat IPC: 0.36840 cumulative IPC: 0.36451 (Simulation time: 0 hr 9 min 3 sec) 
Heartbeat CPU  0 instructions:  259000000 cycles:  543042463 heartbeat IPC: 0.40070 cumulative IPC: 0.36472 (Simulation time: 0 hr 9 min 5 sec) 
Heartbeat CPU  0 instructions:  260000000 cycles:  545722821 heartbeat IPC: 0.37308 cumulative IPC: 0.36477 (Simulation time: 0 hr 9 min 8 sec) 
Heartbeat CPU  0 instructions:  261000000 cycles:  548434944 heartbeat IPC: 0.36871 cumulative IPC: 0.36480 (Simulation time: 0 hr 9 min 10 sec) 
Heartbeat CPU  0 instructions:  262000000 cycles:  551165580 heartbeat IPC: 0.36622 cumulative IPC: 0.36480 (Simulation time: 0 hr 9 min 12 sec) 
Heartbeat CPU  0 instructions:  263000001 cycles:  553864494 heartbeat IPC: 0.37052 cumulative IPC: 0.36484 (Simulation time: 0 hr 9 min 15 sec) 
Heartbeat CPU  0 instructions:  264000000 cycles:  556498847 heartbeat IPC: 0.37960 cumulative IPC: 0.36493 (Simulation time: 0 hr 9 min 17 sec) 
Heartbeat CPU  0 instructions:  265000002 cycles:  559132647 heartbeat IPC: 0.37968 cumulative IPC: 0.36501 (Simulation time: 0 hr 9 min 19 sec) 
Heartbeat CPU  0 instructions:  266000002 cycles:  561784271 heartbeat IPC: 0.37713 cumulative IPC: 0.36508 (Simulation time: 0 hr 9 min 22 sec) 
Heartbeat CPU  0 instructions:  267000003 cycles:  564517702 heartbeat IPC: 0.36584 cumulative IPC: 0.36509 (Simulation time: 0 hr 9 min 24 sec) 
Heartbeat CPU  0 instructions:  268000000 cycles:  567264267 heartbeat IPC: 0.36409 cumulative IPC: 0.36508 (Simulation time: 0 hr 9 min 26 sec) 
Heartbeat CPU  0 instructions:  269000001 cycles:  570002610 heartbeat IPC: 0.36518 cumulative IPC: 0.36508 (Simulation time: 0 hr 9 min 29 sec) 
Heartbeat CPU  0 instructions:  270000001 cycles:  572708365 heartbeat IPC: 0.36958 cumulative IPC: 0.36511 (Simulation time: 0 hr 9 min 31 sec) 
Heartbeat CPU  0 instructions:  271000003 cycles:  575405014 heartbeat IPC: 0.37083 cumulative IPC: 0.36514 (Simulation time: 0 hr 9 min 33 sec) 
Heartbeat CPU  0 instructions:  272000000 cycles:  578132096 heartbeat IPC: 0.36669 cumulative IPC: 0.36515 (Simulation time: 0 hr 9 min 36 sec) 
Heartbeat CPU  0 instructions:  273000001 cycles:  580823785 heartbeat IPC: 0.37151 cumulative IPC: 0.36519 (Simulation time: 0 hr 9 min 38 sec) 
Heartbeat CPU  0 instructions:  274000003 cycles:  583605772 heartbeat IPC: 0.35946 cumulative IPC: 0.36515 (Simulation time: 0 hr 9 min 41 sec) 
Heartbeat CPU  0 instructions:  275000002 cycles:  586338307 heartbeat IPC: 0.36596 cumulative IPC: 0.36516 (Simulation time: 0 hr 9 min 43 sec) 
Heartbeat CPU  0 instructions:  276000000 cycles:  588999696 heartbeat IPC: 0.37574 cumulative IPC: 0.36522 (Simulation time: 0 hr 9 min 45 sec) 
Heartbeat CPU  0 instructions:  277000000 cycles:  591569246 heartbeat IPC: 0.38917 cumulative IPC: 0.36534 (Simulation time: 0 hr 9 min 48 sec) 
Heartbeat CPU  0 instructions:  278000001 cycles:  594059758 heartbeat IPC: 0.40152 cumulative IPC: 0.36553 (Simulation time: 0 hr 9 min 50 sec) 
Heartbeat CPU  0 instructions:  279000002 cycles:  596639078 heartbeat IPC: 0.38770 cumulative IPC: 0.36564 (Simulation time: 0 hr 9 min 52 sec) 
Heartbeat CPU  0 instructions:  280000000 cycles:  599346603 heartbeat IPC: 0.36934 cumulative IPC: 0.36566 (Simulation time: 0 hr 9 min 55 sec) 
Heartbeat CPU  0 instructions:  281000002 cycles:  602075342 heartbeat IPC: 0.36647 cumulative IPC: 0.36567 (Simulation time: 0 hr 9 min 57 sec) 
Heartbeat CPU  0 instructions:  282000003 cycles:  604715027 heartbeat IPC: 0.37883 cumulative IPC: 0.36574 (Simulation time: 0 hr 10 min 0 sec) 
Heartbeat CPU  0 instructions:  283000001 cycles:  607177367 heartbeat IPC: 0.40612 cumulative IPC: 0.36594 (Simulation time: 0 hr 10 min 2 sec) 
Heartbeat CPU  0 instructions:  284000000 cycles:  609789403 heartbeat IPC: 0.38284 cumulative IPC: 0.36603 (Simulation time: 0 hr 10 min 4 sec) 
Heartbeat CPU  0 instructions:  285000001 cycles:  612460286 heartbeat IPC: 0.37441 cumulative IPC: 0.36607 (Simulation time: 0 hr 10 min 6 sec) 
Heartbeat CPU  0 instructions:  286000000 cycles:  614948874 heartbeat IPC: 0.40183 cumulative IPC: 0.36625 (Simulation time: 0 hr 10 min 9 sec) 
Heartbeat CPU  0 instructions:  287000002 cycles:  617517963 heartbeat IPC: 0.38924 cumulative IPC: 0.36636 (Simulation time: 0 hr 10 min 11 sec) 
Heartbeat CPU  0 instructions:  288000000 cycles:  620230557 heartbeat IPC: 0.36865 cumulative IPC: 0.36637 (Simulation time: 0 hr 10 min 13 sec) 
Heartbeat CPU  0 instructions:  289000000 cycles:  622988559 heartbeat IPC: 0.36258 cumulative IPC: 0.36635 (Simulation time: 0 hr 10 min 16 sec) 
Heartbeat CPU  0 instructions:  290000002 cycles:  625588949 heartbeat IPC: 0.38456 cumulative IPC: 0.36644 (Simulation time: 0 hr 10 min 18 sec) 
Heartbeat CPU  0 instructions:  291000000 cycles:  628441609 heartbeat IPC: 0.35055 cumulative IPC: 0.36636 (Simulation time: 0 hr 10 min 20 sec) 
Heartbeat CPU  0 instructions:  292000000 cycles:  631248257 heartbeat IPC: 0.35630 cumulative IPC: 0.36630 (Simulation time: 0 hr 10 min 23 sec) 
Heartbeat CPU  0 instructions:  293000000 cycles:  634023809 heartbeat IPC: 0.36029 cumulative IPC: 0.36627 (Simulation time: 0 hr 10 min 25 sec) 
Heartbeat CPU  0 instructions:  294000002 cycles:  636766514 heartbeat IPC: 0.36460 cumulative IPC: 0.36626 (Simulation time: 0 hr 10 min 27 sec) 
Heartbeat CPU  0 instructions:  295000001 cycles:  639459822 heartbeat IPC: 0.37129 cumulative IPC: 0.36629 (Simulation time: 0 hr 10 min 30 sec) 
Heartbeat CPU  0 instructions:  296000000 cycles:  642211087 heartbeat IPC: 0.36347 cumulative IPC: 0.36627 (Simulation time: 0 hr 10 min 32 sec) 
Heartbeat CPU  0 instructions:  297000000 cycles:  644919829 heartbeat IPC: 0.36918 cumulative IPC: 0.36629 (Simulation time: 0 hr 10 min 34 sec) 
Heartbeat CPU  0 instructions:  298000000 cycles:  647588190 heartbeat IPC: 0.37476 cumulative IPC: 0.36633 (Simulation time: 0 hr 10 min 37 sec) 
Heartbeat CPU  0 instructions:  299000000 cycles:  650367827 heartbeat IPC: 0.35976 cumulative IPC: 0.36630 (Simulation time: 0 hr 10 min 39 sec) 
Heartbeat CPU  0 instructions:  300000000 cycles:  653062947 heartbeat IPC: 0.37104 cumulative IPC: 0.36632 (Simulation time: 0 hr 10 min 41 sec) 
Heartbeat CPU  0 instructions:  301000000 cycles:  655833279 heartbeat IPC: 0.36097 cumulative IPC: 0.36629 (Simulation time: 0 hr 10 min 44 sec) 
Heartbeat CPU  0 instructions:  302000000 cycles:  658582746 heartbeat IPC: 0.36371 cumulative IPC: 0.36628 (Simulation time: 0 hr 10 min 46 sec) 
Heartbeat CPU  0 instructions:  303000000 cycles:  661464606 heartbeat IPC: 0.34700 cumulative IPC: 0.36618 (Simulation time: 0 hr 10 min 49 sec) 
Heartbeat CPU  0 instructions:  304000000 cycles:  664185704 heartbeat IPC: 0.36750 cumulative IPC: 0.36619 (Simulation time: 0 hr 10 min 51 sec) 
Heartbeat CPU  0 instructions:  305000002 cycles:  666818492 heartbeat IPC: 0.37983 cumulative IPC: 0.36625 (Simulation time: 0 hr 10 min 54 sec) 
Heartbeat CPU  0 instructions:  306000000 cycles:  669705842 heartbeat IPC: 0.34634 cumulative IPC: 0.36615 (Simulation time: 0 hr 10 min 56 sec) 
Heartbeat CPU  0 instructions:  307000000 cycles:  672425158 heartbeat IPC: 0.36774 cumulative IPC: 0.36616 (Simulation time: 0 hr 10 min 58 sec) 
Heartbeat CPU  0 instructions:  308000000 cycles:  675145642 heartbeat IPC: 0.36758 cumulative IPC: 0.36616 (Simulation time: 0 hr 11 min 1 sec) 
Heartbeat CPU  0 instructions:  309000000 cycles:  677821524 heartbeat IPC: 0.37371 cumulative IPC: 0.36620 (Simulation time: 0 hr 11 min 3 sec) 
Heartbeat CPU  0 instructions:  310000000 cycles:  680246429 heartbeat IPC: 0.41239 cumulative IPC: 0.36639 (Simulation time: 0 hr 11 min 5 sec) 
Heartbeat CPU  0 instructions:  311000000 cycles:  682134278 heartbeat IPC: 0.52970 cumulative IPC: 0.36693 (Simulation time: 0 hr 11 min 7 sec) 
Heartbeat CPU  0 instructions:  312000000 cycles:  684768669 heartbeat IPC: 0.37959 cumulative IPC: 0.36699 (Simulation time: 0 hr 11 min 10 sec) 
Heartbeat CPU  0 instructions:  313000002 cycles:  687516954 heartbeat IPC: 0.36386 cumulative IPC: 0.36697 (Simulation time: 0 hr 11 min 12 sec) 
Heartbeat CPU  0 instructions:  314000002 cycles:  690253315 heartbeat IPC: 0.36545 cumulative IPC: 0.36697 (Simulation time: 0 hr 11 min 14 sec) 
Heartbeat CPU  0 instructions:  315000001 cycles:  693019434 heartbeat IPC: 0.36152 cumulative IPC: 0.36694 (Simulation time: 0 hr 11 min 17 sec) 
Heartbeat CPU  0 instructions:  316000000 cycles:  695826050 heartbeat IPC: 0.35630 cumulative IPC: 0.36689 (Simulation time: 0 hr 11 min 19 sec) 
Heartbeat CPU  0 instructions:  317000003 cycles:  698577559 heartbeat IPC: 0.36344 cumulative IPC: 0.36687 (Simulation time: 0 hr 11 min 21 sec) 
Heartbeat CPU  0 instructions:  318000000 cycles:  701287903 heartbeat IPC: 0.36896 cumulative IPC: 0.36688 (Simulation time: 0 hr 11 min 24 sec) 
Heartbeat CPU  0 instructions:  319000000 cycles:  703925368 heartbeat IPC: 0.37915 cumulative IPC: 0.36694 (Simulation time: 0 hr 11 min 26 sec) 
Heartbeat CPU  0 instructions:  320000000 cycles:  706589838 heartbeat IPC: 0.37531 cumulative IPC: 0.36697 (Simulation time: 0 hr 11 min 28 sec) 
Heartbeat CPU  0 instructions:  321000003 cycles:  709317252 heartbeat IPC: 0.36665 cumulative IPC: 0.36697 (Simulation time: 0 hr 11 min 31 sec) 
Heartbeat CPU  0 instructions:  322000002 cycles:  711930123 heartbeat IPC: 0.38272 cumulative IPC: 0.36704 (Simulation time: 0 hr 11 min 33 sec) 
Heartbeat CPU  0 instructions:  323000000 cycles:  714554267 heartbeat IPC: 0.38108 cumulative IPC: 0.36710 (Simulation time: 0 hr 11 min 35 sec) 
Heartbeat CPU  0 instructions:  324000000 cycles:  716636007 heartbeat IPC: 0.48037 cumulative IPC: 0.36749 (Simulation time: 0 hr 11 min 37 sec) 
Heartbeat CPU  0 instructions:  325000001 cycles:  719047770 heartbeat IPC: 0.41463 cumulative IPC: 0.36767 (Simulation time: 0 hr 11 min 39 sec) 
Heartbeat CPU  0 instructions:  326000000 cycles:  721513574 heartbeat IPC: 0.40555 cumulative IPC: 0.36783 (Simulation time: 0 hr 11 min 42 sec) 
Heartbeat CPU  0 instructions:  327000000 cycles:  723938933 heartbeat IPC: 0.41231 cumulative IPC: 0.36800 (Simulation time: 0 hr 11 min 44 sec) 
Heartbeat CPU  0 instructions:  328000000 cycles:  726615180 heartbeat IPC: 0.37366 cumulative IPC: 0.36803 (Simulation time: 0 hr 11 min 47 sec) 
Heartbeat CPU  0 instructions:  329000003 cycles:  729114332 heartbeat IPC: 0.40014 cumulative IPC: 0.36815 (Simulation time: 0 hr 11 min 49 sec) 
Heartbeat CPU  0 instructions:  330000001 cycles:  731459700 heartbeat IPC: 0.42637 cumulative IPC: 0.36837 (Simulation time: 0 hr 11 min 52 sec) 
Heartbeat CPU  0 instructions:  331000001 cycles:  733831262 heartbeat IPC: 0.42166 cumulative IPC: 0.36857 (Simulation time: 0 hr 11 min 54 sec) 
Heartbeat CPU  0 instructions:  332000000 cycles:  736424133 heartbeat IPC: 0.38567 cumulative IPC: 0.36864 (Simulation time: 0 hr 11 min 56 sec) 
Heartbeat CPU  0 instructions:  333000000 cycles:  739007993 heartbeat IPC: 0.38702 cumulative IPC: 0.36872 (Simulation time: 0 hr 11 min 59 sec) 
Heartbeat CPU  0 instructions:  334000001 cycles:  741554928 heartbeat IPC: 0.39263 cumulative IPC: 0.36882 (Simulation time: 0 hr 12 min 1 sec) 
Heartbeat CPU  0 instructions:  335000000 cycles:  744163968 heartbeat IPC: 0.38328 cumulative IPC: 0.36888 (Simulation time: 0 hr 12 min 4 sec) 
Heartbeat CPU  0 instructions:  336000000 cycles:  746565031 heartbeat IPC: 0.41648 cumulative IPC: 0.36905 (Simulation time: 0 hr 12 min 6 sec) 
Heartbeat CPU  0 instructions:  337000000 cycles:  748956529 heartbeat IPC: 0.41815 cumulative IPC: 0.36924 (Simulation time: 0 hr 12 min 9 sec) 
Heartbeat CPU  0 instructions:  338000001 cycles:  751435054 heartbeat IPC: 0.40347 cumulative IPC: 0.36937 (Simulation time: 0 hr 12 min 11 sec) 
Heartbeat CPU  0 instructions:  339000000 cycles:  753902198 heartbeat IPC: 0.40533 cumulative IPC: 0.36951 (Simulation time: 0 hr 12 min 14 sec) 
Heartbeat CPU  0 instructions:  340000000 cycles:  756530200 heartbeat IPC: 0.38052 cumulative IPC: 0.36955 (Simulation time: 0 hr 12 min 16 sec) 
Heartbeat CPU  0 instructions:  341000002 cycles:  759140025 heartbeat IPC: 0.38317 cumulative IPC: 0.36960 (Simulation time: 0 hr 12 min 19 sec) 
Heartbeat CPU  0 instructions:  342000001 cycles:  761908805 heartbeat IPC: 0.36117 cumulative IPC: 0.36957 (Simulation time: 0 hr 12 min 21 sec) 
Heartbeat CPU  0 instructions:  343000003 cycles:  764502650 heartbeat IPC: 0.38553 cumulative IPC: 0.36963 (Simulation time: 0 hr 12 min 24 sec) 
Heartbeat CPU  0 instructions:  344000000 cycles:  767033225 heartbeat IPC: 0.39517 cumulative IPC: 0.36973 (Simulation time: 0 hr 12 min 26 sec) 
Heartbeat CPU  0 instructions:  345000003 cycles:  769831024 heartbeat IPC: 0.35742 cumulative IPC: 0.36968 (Simulation time: 0 hr 12 min 29 sec) 
Heartbeat CPU  0 instructions:  346000001 cycles:  772558370 heartbeat IPC: 0.36666 cumulative IPC: 0.36967 (Simulation time: 0 hr 12 min 31 sec) 
Heartbeat CPU  0 instructions:  347000002 cycles:  775053648 heartbeat IPC: 0.40076 cumulative IPC: 0.36978 (Simulation time: 0 hr 12 min 34 sec) 
Heartbeat CPU  0 instructions:  348000000 cycles:  777422476 heartbeat IPC: 0.42215 cumulative IPC: 0.36997 (Simulation time: 0 hr 12 min 36 sec) 
Heartbeat CPU  0 instructions:  349000000 cycles:  780063273 heartbeat IPC: 0.37867 cumulative IPC: 0.37000 (Simulation time: 0 hr 12 min 39 sec) 
Heartbeat CPU  0 instructions:  350000001 cycles:  782584646 heartbeat IPC: 0.39661 cumulative IPC: 0.37010 (Simulation time: 0 hr 12 min 41 sec) 
Heartbeat CPU  0 instructions:  351000000 cycles:  785388265 heartbeat IPC: 0.35668 cumulative IPC: 0.37004 (Simulation time: 0 hr 12 min 44 sec) 
Heartbeat CPU  0 instructions:  352000000 cycles:  788068889 heartbeat IPC: 0.37305 cumulative IPC: 0.37006 (Simulation time: 0 hr 12 min 46 sec) 
Heartbeat CPU  0 instructions:  353000002 cycles:  790642224 heartbeat IPC: 0.38860 cumulative IPC: 0.37013 (Simulation time: 0 hr 12 min 48 sec) 
Heartbeat CPU  0 instructions:  354000000 cycles:  793262532 heartbeat IPC: 0.38163 cumulative IPC: 0.37017 (Simulation time: 0 hr 12 min 51 sec) 
Heartbeat CPU  0 instructions:  355000003 cycles:  796009597 heartbeat IPC: 0.36403 cumulative IPC: 0.37015 (Simulation time: 0 hr 12 min 53 sec) 
Heartbeat CPU  0 instructions:  356000000 cycles:  798745999 heartbeat IPC: 0.36544 cumulative IPC: 0.37013 (Simulation time: 0 hr 12 min 55 sec) 
Heartbeat CPU  0 instructions:  357000000 cycles:  801425410 heartbeat IPC: 0.37322 cumulative IPC: 0.37014 (Simulation time: 0 hr 12 min 58 sec) 
Heartbeat CPU  0 instructions:  358000000 cycles:  804133581 heartbeat IPC: 0.36925 cumulative IPC: 0.37014 (Simulation time: 0 hr 13 min 0 sec) 
Heartbeat CPU  0 instructions:  359000000 cycles:  806823330 heartbeat IPC: 0.37178 cumulative IPC: 0.37014 (Simulation time: 0 hr 13 min 3 sec) 
Heartbeat CPU  0 instructions:  360000000 cycles:  809505849 heartbeat IPC: 0.37278 cumulative IPC: 0.37015 (Simulation time: 0 hr 13 min 5 sec) 
Heartbeat CPU  0 instructions:  361000000 cycles:  812037903 heartbeat IPC: 0.39494 cumulative IPC: 0.37024 (Simulation time: 0 hr 13 min 8 sec) 
Heartbeat CPU  0 instructions:  362000000 cycles:  814939151 heartbeat IPC: 0.34468 cumulative IPC: 0.37014 (Simulation time: 0 hr 13 min 10 sec) 
Heartbeat CPU  0 instructions:  363000000 cycles:  817725065 heartbeat IPC: 0.35895 cumulative IPC: 0.37009 (Simulation time: 0 hr 13 min 12 sec) 
Heartbeat CPU  0 instructions:  364000000 cycles:  820106827 heartbeat IPC: 0.41986 cumulative IPC: 0.37026 (Simulation time: 0 hr 13 min 15 sec) 
Heartbeat CPU  0 instructions:  365000000 cycles:  822510124 heartbeat IPC: 0.41610 cumulative IPC: 0.37041 (Simulation time: 0 hr 13 min 18 sec) 
Heartbeat CPU  0 instructions:  366000002 cycles:  824354545 heartbeat IPC: 0.54218 cumulative IPC: 0.37085 (Simulation time: 0 hr 13 min 20 sec) 
Heartbeat CPU  0 instructions:  367000000 cycles:  826101876 heartbeat IPC: 0.57230 cumulative IPC: 0.37134 (Simulation time: 0 hr 13 min 22 sec) 
Heartbeat CPU  0 instructions:  368000000 cycles:  828785972 heartbeat IPC: 0.37256 cumulative IPC: 0.37135 (Simulation time: 0 hr 13 min 24 sec) 
Heartbeat CPU  0 instructions:  369000000 cycles:  831562174 heartbeat IPC: 0.36020 cumulative IPC: 0.37131 (Simulation time: 0 hr 13 min 27 sec) 
Heartbeat CPU  0 instructions:  370000000 cycles:  834416192 heartbeat IPC: 0.35038 cumulative IPC: 0.37122 (Simulation time: 0 hr 13 min 31 sec) 
Heartbeat CPU  0 instructions:  371000003 cycles:  837083218 heartbeat IPC: 0.37495 cumulative IPC: 0.37124 (Simulation time: 0 hr 13 min 34 sec) 
Heartbeat CPU  0 instructions:  372000000 cycles:  839744645 heartbeat IPC: 0.37574 cumulative IPC: 0.37125 (Simulation time: 0 hr 13 min 37 sec) 
Heartbeat CPU  0 instructions:  373000002 cycles:  842406434 heartbeat IPC: 0.37569 cumulative IPC: 0.37127 (Simulation time: 0 hr 13 min 39 sec) 
Heartbeat CPU  0 instructions:  374000001 cycles:  845201780 heartbeat IPC: 0.35774 cumulative IPC: 0.37122 (Simulation time: 0 hr 13 min 42 sec) 
Heartbeat CPU  0 instructions:  375000000 cycles:  847977243 heartbeat IPC: 0.36030 cumulative IPC: 0.37118 (Simulation time: 0 hr 13 min 45 sec) 
Heartbeat CPU  0 instructions:  376000000 cycles:  850756671 heartbeat IPC: 0.35979 cumulative IPC: 0.37114 (Simulation time: 0 hr 13 min 48 sec) 
Heartbeat CPU  0 instructions:  377000002 cycles:  853528314 heartbeat IPC: 0.36080 cumulative IPC: 0.37110 (Simulation time: 0 hr 13 min 51 sec) 
Heartbeat CPU  0 instructions:  378000001 cycles:  856291574 heartbeat IPC: 0.36189 cumulative IPC: 0.37106 (Simulation time: 0 hr 13 min 53 sec) 
Heartbeat CPU  0 instructions:  379000000 cycles:  859147186 heartbeat IPC: 0.35019 cumulative IPC: 0.37098 (Simulation time: 0 hr 13 min 56 sec) 
Heartbeat CPU  0 instructions:  380000000 cycles:  861973764 heartbeat IPC: 0.35378 cumulative IPC: 0.37092 (Simulation time: 0 hr 13 min 58 sec) 
Heartbeat CPU  0 instructions:  381000002 cycles:  864830030 heartbeat IPC: 0.35011 cumulative IPC: 0.37084 (Simulation time: 0 hr 14 min 1 sec) 
Heartbeat CPU  0 instructions:  382000000 cycles:  867545996 heartbeat IPC: 0.36819 cumulative IPC: 0.37083 (Simulation time: 0 hr 14 min 3 sec) 
Heartbeat CPU  0 instructions:  383000001 cycles:  870261062 heartbeat IPC: 0.36832 cumulative IPC: 0.37082 (Simulation time: 0 hr 14 min 6 sec) 
Heartbeat CPU  0 instructions:  384000000 cycles:  873064116 heartbeat IPC: 0.35675 cumulative IPC: 0.37077 (Simulation time: 0 hr 14 min 8 sec) 
Heartbeat CPU  0 instructions:  385000002 cycles:  875788610 heartbeat IPC: 0.36704 cumulative IPC: 0.37076 (Simulation time: 0 hr 14 min 11 sec) 
Heartbeat CPU  0 instructions:  386000000 cycles:  878365850 heartbeat IPC: 0.38801 cumulative IPC: 0.37082 (Simulation time: 0 hr 14 min 13 sec) 
Heartbeat CPU  0 instructions:  387000000 cycles:  880979615 heartbeat IPC: 0.38259 cumulative IPC: 0.37085 (Simulation time: 0 hr 14 min 16 sec) 
Heartbeat CPU  0 instructions:  388000000 cycles:  883800789 heartbeat IPC: 0.35446 cumulative IPC: 0.37080 (Simulation time: 0 hr 14 min 18 sec) 
Heartbeat CPU  0 instructions:  389000000 cycles:  886471446 heartbeat IPC: 0.37444 cumulative IPC: 0.37081 (Simulation time: 0 hr 14 min 20 sec) 
Heartbeat CPU  0 instructions:  390000001 cycles:  889382033 heartbeat IPC: 0.34357 cumulative IPC: 0.37071 (Simulation time: 0 hr 14 min 23 sec) 
Heartbeat CPU  0 instructions:  391000001 cycles:  892136928 heartbeat IPC: 0.36299 cumulative IPC: 0.37068 (Simulation time: 0 hr 14 min 25 sec) 
Heartbeat CPU  0 instructions:  392000000 cycles:  894764557 heartbeat IPC: 0.38057 cumulative IPC: 0.37071 (Simulation time: 0 hr 14 min 28 sec) 
Heartbeat CPU  0 instructions:  393000001 cycles:  897558026 heartbeat IPC: 0.35798 cumulative IPC: 0.37067 (Simulation time: 0 hr 14 min 30 sec) 
Heartbeat CPU  0 instructions:  394000002 cycles:  900283564 heartbeat IPC: 0.36690 cumulative IPC: 0.37065 (Simulation time: 0 hr 14 min 32 sec) 
Heartbeat CPU  0 instructions:  395000000 cycles:  902880098 heartbeat IPC: 0.38513 cumulative IPC: 0.37070 (Simulation time: 0 hr 14 min 35 sec) 
Heartbeat CPU  0 instructions:  396000000 cycles:  905723729 heartbeat IPC: 0.35166 cumulative IPC: 0.37063 (Simulation time: 0 hr 14 min 37 sec) 
Heartbeat CPU  0 instructions:  397000000 cycles:  908507477 heartbeat IPC: 0.35923 cumulative IPC: 0.37059 (Simulation time: 0 hr 14 min 40 sec) 
Heartbeat CPU  0 instructions:  398000000 cycles:  911053405 heartbeat IPC: 0.39278 cumulative IPC: 0.37066 (Simulation time: 0 hr 14 min 42 sec) 
Heartbeat CPU  0 instructions:  399000000 cycles:  913863299 heartbeat IPC: 0.35589 cumulative IPC: 0.37061 (Simulation time: 0 hr 14 min 44 sec) 
Heartbeat CPU  0 instructions:  400000000 cycles:  916435312 heartbeat IPC: 0.38880 cumulative IPC: 0.37067 (Simulation time: 0 hr 14 min 47 sec) 
Heartbeat CPU  0 instructions:  401000003 cycles:  919174051 heartbeat IPC: 0.36513 cumulative IPC: 0.37065 (Simulation time: 0 hr 14 min 49 sec) 
Heartbeat CPU  0 instructions:  402000001 cycles:  921747035 heartbeat IPC: 0.38865 cumulative IPC: 0.37071 (Simulation time: 0 hr 14 min 52 sec) 
Heartbeat CPU  0 instructions:  403000001 cycles:  924245717 heartbeat IPC: 0.40021 cumulative IPC: 0.37080 (Simulation time: 0 hr 14 min 54 sec) 
Heartbeat CPU  0 instructions:  404000000 cycles:  927113638 heartbeat IPC: 0.34868 cumulative IPC: 0.37072 (Simulation time: 0 hr 14 min 57 sec) 
Heartbeat CPU  0 instructions:  405000001 cycles:  929956866 heartbeat IPC: 0.35171 cumulative IPC: 0.37066 (Simulation time: 0 hr 14 min 59 sec) 
Heartbeat CPU  0 instructions:  406000002 cycles:  932793659 heartbeat IPC: 0.35251 cumulative IPC: 0.37059 (Simulation time: 0 hr 15 min 1 sec) 
Heartbeat CPU  0 instructions:  407000000 cycles:  935460866 heartbeat IPC: 0.37492 cumulative IPC: 0.37061 (Simulation time: 0 hr 15 min 4 sec) 
Heartbeat CPU  0 instructions:  408000000 cycles:  938231876 heartbeat IPC: 0.36088 cumulative IPC: 0.37058 (Simulation time: 0 hr 15 min 6 sec) 
Heartbeat CPU  0 instructions:  409000003 cycles:  940972536 heartbeat IPC: 0.36488 cumulative IPC: 0.37056 (Simulation time: 0 hr 15 min 8 sec) 
Heartbeat CPU  0 instructions:  410000002 cycles:  943625194 heartbeat IPC: 0.37698 cumulative IPC: 0.37058 (Simulation time: 0 hr 15 min 11 sec) 
Heartbeat CPU  0 instructions:  411000000 cycles:  946401652 heartbeat IPC: 0.36017 cumulative IPC: 0.37054 (Simulation time: 0 hr 15 min 13 sec) 
Heartbeat CPU  0 instructions:  412000000 cycles:  949081978 heartbeat IPC: 0.37309 cumulative IPC: 0.37055 (Simulation time: 0 hr 15 min 15 sec) 
Heartbeat CPU  0 instructions:  413000001 cycles:  951897045 heartbeat IPC: 0.35523 cumulative IPC: 0.37050 (Simulation time: 0 hr 15 min 17 sec) 
Heartbeat CPU  0 instructions:  414000003 cycles:  954552338 heartbeat IPC: 0.37661 cumulative IPC: 0.37052 (Simulation time: 0 hr 15 min 20 sec) 
Heartbeat CPU  0 instructions:  415000002 cycles:  957233102 heartbeat IPC: 0.37303 cumulative IPC: 0.37053 (Simulation time: 0 hr 15 min 22 sec) 
Heartbeat CPU  0 instructions:  416000000 cycles:  959926293 heartbeat IPC: 0.37131 cumulative IPC: 0.37053 (Simulation time: 0 hr 15 min 24 sec) 
Heartbeat CPU  0 instructions:  417000003 cycles:  962680925 heartbeat IPC: 0.36303 cumulative IPC: 0.37051 (Simulation time: 0 hr 15 min 27 sec) 
Heartbeat CPU  0 instructions:  418000001 cycles:  965451659 heartbeat IPC: 0.36091 cumulative IPC: 0.37047 (Simulation time: 0 hr 15 min 29 sec) 
Heartbeat CPU  0 instructions:  419000000 cycles:  968275127 heartbeat IPC: 0.35417 cumulative IPC: 0.37042 (Simulation time: 0 hr 15 min 31 sec) 
Heartbeat CPU  0 instructions:  420000000 cycles:  971024455 heartbeat IPC: 0.36373 cumulative IPC: 0.37040 (Simulation time: 0 hr 15 min 34 sec) 
Heartbeat CPU  0 instructions:  421000000 cycles:  973561641 heartbeat IPC: 0.39414 cumulative IPC: 0.37047 (Simulation time: 0 hr 15 min 36 sec) 
Heartbeat CPU  0 instructions:  422000001 cycles:  976391353 heartbeat IPC: 0.35339 cumulative IPC: 0.37041 (Simulation time: 0 hr 15 min 38 sec) 
Heartbeat CPU  0 instructions:  423000003 cycles:  979101403 heartbeat IPC: 0.36900 cumulative IPC: 0.37041 (Simulation time: 0 hr 15 min 40 sec) 
Heartbeat CPU  0 instructions:  424000000 cycles:  981695756 heartbeat IPC: 0.38545 cumulative IPC: 0.37045 (Simulation time: 0 hr 15 min 43 sec) 
Heartbeat CPU  0 instructions:  425000001 cycles:  984427000 heartbeat IPC: 0.36613 cumulative IPC: 0.37044 (Simulation time: 0 hr 15 min 45 sec) 
Heartbeat CPU  0 instructions:  426000003 cycles:  986948085 heartbeat IPC: 0.39666 cumulative IPC: 0.37052 (Simulation time: 0 hr 15 min 47 sec) 
Heartbeat CPU  0 instructions:  427000002 cycles:  989550205 heartbeat IPC: 0.38430 cumulative IPC: 0.37056 (Simulation time: 0 hr 15 min 49 sec) 
Heartbeat CPU  0 instructions:  428000000 cycles:  992134607 heartbeat IPC: 0.38694 cumulative IPC: 0.37060 (Simulation time: 0 hr 15 min 52 sec) 
Heartbeat CPU  0 instructions:  429000003 cycles:  994700452 heartbeat IPC: 0.38974 cumulative IPC: 0.37066 (Simulation time: 0 hr 15 min 54 sec) 
Heartbeat CPU  0 instructions:  430000002 cycles:  997461275 heartbeat IPC: 0.36221 cumulative IPC: 0.37063 (Simulation time: 0 hr 15 min 56 sec) 
Heartbeat CPU  0 instructions:  431000001 cycles:  999990056 heartbeat IPC: 0.39545 cumulative IPC: 0.37070 (Simulation time: 0 hr 15 min 59 sec) 
Heartbeat CPU  0 instructions:  432000000 cycles: 1002696647 heartbeat IPC: 0.36947 cumulative IPC: 0.37070 (Simulation time: 0 hr 16 min 1 sec) 
Heartbeat CPU  0 instructions:  433000003 cycles: 1005393004 heartbeat IPC: 0.37087 cumulative IPC: 0.37070 (Simulation time: 0 hr 16 min 3 sec) 
Heartbeat CPU  0 instructions:  434000000 cycles: 1007964903 heartbeat IPC: 0.38882 cumulative IPC: 0.37075 (Simulation time: 0 hr 16 min 5 sec) 
Heartbeat CPU  0 instructions:  435000000 cycles: 1010765277 heartbeat IPC: 0.35710 cumulative IPC: 0.37071 (Simulation time: 0 hr 16 min 8 sec) 
Heartbeat CPU  0 instructions:  436000000 cycles: 1013103528 heartbeat IPC: 0.42767 cumulative IPC: 0.37086 (Simulation time: 0 hr 16 min 10 sec) 
Heartbeat CPU  0 instructions:  437000003 cycles: 1015691510 heartbeat IPC: 0.38640 cumulative IPC: 0.37090 (Simulation time: 0 hr 16 min 12 sec) 
Heartbeat CPU  0 instructions:  438000001 cycles: 1018557744 heartbeat IPC: 0.34889 cumulative IPC: 0.37083 (Simulation time: 0 hr 16 min 14 sec) 
Heartbeat CPU  0 instructions:  439000000 cycles: 1021428721 heartbeat IPC: 0.34831 cumulative IPC: 0.37076 (Simulation time: 0 hr 16 min 17 sec) 
Heartbeat CPU  0 instructions:  440000000 cycles: 1024199050 heartbeat IPC: 0.36097 cumulative IPC: 0.37073 (Simulation time: 0 hr 16 min 19 sec) 
Heartbeat CPU  0 instructions:  441000003 cycles: 1026982950 heartbeat IPC: 0.35921 cumulative IPC: 0.37070 (Simulation time: 0 hr 16 min 21 sec) 
Heartbeat CPU  0 instructions:  442000002 cycles: 1029748465 heartbeat IPC: 0.36160 cumulative IPC: 0.37067 (Simulation time: 0 hr 16 min 24 sec) 
Heartbeat CPU  0 instructions:  443000001 cycles: 1032584019 heartbeat IPC: 0.35266 cumulative IPC: 0.37061 (Simulation time: 0 hr 16 min 26 sec) 
Heartbeat CPU  0 instructions:  444000000 cycles: 1035363002 heartbeat IPC: 0.35984 cumulative IPC: 0.37058 (Simulation time: 0 hr 16 min 28 sec) 
Heartbeat CPU  0 instructions:  445000000 cycles: 1038228081 heartbeat IPC: 0.34903 cumulative IPC: 0.37052 (Simulation time: 0 hr 16 min 31 sec) 
Heartbeat CPU  0 instructions:  446000000 cycles: 1041074708 heartbeat IPC: 0.35129 cumulative IPC: 0.37046 (Simulation time: 0 hr 16 min 33 sec) 
Heartbeat CPU  0 instructions:  447000000 cycles: 1043869417 heartbeat IPC: 0.35782 cumulative IPC: 0.37042 (Simulation time: 0 hr 16 min 35 sec) 
Heartbeat CPU  0 instructions:  448000000 cycles: 1046397840 heartbeat IPC: 0.39550 cumulative IPC: 0.37049 (Simulation time: 0 hr 16 min 38 sec) 
Heartbeat CPU  0 instructions:  449000001 cycles: 1049261754 heartbeat IPC: 0.34917 cumulative IPC: 0.37042 (Simulation time: 0 hr 16 min 40 sec) 
Heartbeat CPU  0 instructions:  450000002 cycles: 1052031057 heartbeat IPC: 0.36110 cumulative IPC: 0.37039 (Simulation time: 0 hr 16 min 42 sec) 
Heartbeat CPU  0 instructions:  451000001 cycles: 1054719700 heartbeat IPC: 0.37193 cumulative IPC: 0.37040 (Simulation time: 0 hr 16 min 45 sec) 
Heartbeat CPU  0 instructions:  452000000 cycles: 1057545734 heartbeat IPC: 0.35385 cumulative IPC: 0.37035 (Simulation time: 0 hr 16 min 47 sec) 
Heartbeat CPU  0 instructions:  453000001 cycles: 1060343952 heartbeat IPC: 0.35737 cumulative IPC: 0.37031 (Simulation time: 0 hr 16 min 49 sec) 
Heartbeat CPU  0 instructions:  454000003 cycles: 1063201772 heartbeat IPC: 0.34992 cumulative IPC: 0.37025 (Simulation time: 0 hr 16 min 52 sec) 
Heartbeat CPU  0 instructions:  455000000 cycles: 1065916303 heartbeat IPC: 0.36839 cumulative IPC: 0.37025 (Simulation time: 0 hr 16 min 54 sec) 
Heartbeat CPU  0 instructions:  456000000 cycles: 1068739584 heartbeat IPC: 0.35420 cumulative IPC: 0.37020 (Simulation time: 0 hr 16 min 56 sec) 
Heartbeat CPU  0 instructions:  457000000 cycles: 1071465276 heartbeat IPC: 0.36688 cumulative IPC: 0.37019 (Simulation time: 0 hr 16 min 59 sec) 
Heartbeat CPU  0 instructions:  458000003 cycles: 1074258305 heartbeat IPC: 0.35804 cumulative IPC: 0.37015 (Simulation time: 0 hr 17 min 1 sec) 
Heartbeat CPU  0 instructions:  459000001 cycles: 1076997100 heartbeat IPC: 0.36512 cumulative IPC: 0.37014 (Simulation time: 0 hr 17 min 3 sec) 
Heartbeat CPU  0 instructions:  460000000 cycles: 1079721829 heartbeat IPC: 0.36701 cumulative IPC: 0.37013 (Simulation time: 0 hr 17 min 6 sec) 
Heartbeat CPU  0 instructions:  461000002 cycles: 1082494313 heartbeat IPC: 0.36069 cumulative IPC: 0.37010 (Simulation time: 0 hr 17 min 8 sec) 
Heartbeat CPU  0 instructions:  462000001 cycles: 1085218982 heartbeat IPC: 0.36702 cumulative IPC: 0.37010 (Simulation time: 0 hr 17 min 10 sec) 
Heartbeat CPU  0 instructions:  463000001 cycles: 1088053419 heartbeat IPC: 0.35280 cumulative IPC: 0.37005 (Simulation time: 0 hr 17 min 13 sec) 
Heartbeat CPU  0 instructions:  464000000 cycles: 1090859871 heartbeat IPC: 0.35632 cumulative IPC: 0.37001 (Simulation time: 0 hr 17 min 15 sec) 
Heartbeat CPU  0 instructions:  465000001 cycles: 1093483049 heartbeat IPC: 0.38122 cumulative IPC: 0.37004 (Simulation time: 0 hr 17 min 17 sec) 
Heartbeat CPU  0 instructions:  466000000 cycles: 1096208813 heartbeat IPC: 0.36687 cumulative IPC: 0.37003 (Simulation time: 0 hr 17 min 20 sec) 
Heartbeat CPU  0 instructions:  467000003 cycles: 1098918686 heartbeat IPC: 0.36902 cumulative IPC: 0.37002 (Simulation time: 0 hr 17 min 22 sec) 
Heartbeat CPU  0 instructions:  468000000 cycles: 1101560619 heartbeat IPC: 0.37851 cumulative IPC: 0.37005 (Simulation time: 0 hr 17 min 24 sec) 
Heartbeat CPU  0 instructions:  469000002 cycles: 1104141394 heartbeat IPC: 0.38748 cumulative IPC: 0.37009 (Simulation time: 0 hr 17 min 26 sec) 
Heartbeat CPU  0 instructions:  470000000 cycles: 1106850307 heartbeat IPC: 0.36915 cumulative IPC: 0.37009 (Simulation time: 0 hr 17 min 29 sec) 
Heartbeat CPU  0 instructions:  471000000 cycles: 1109442735 heartbeat IPC: 0.38574 cumulative IPC: 0.37013 (Simulation time: 0 hr 17 min 31 sec) 
Heartbeat CPU  0 instructions:  472000000 cycles: 1112110792 heartbeat IPC: 0.37480 cumulative IPC: 0.37014 (Simulation time: 0 hr 17 min 33 sec) 
Heartbeat CPU  0 instructions:  473000001 cycles: 1115043541 heartbeat IPC: 0.34098 cumulative IPC: 0.37006 (Simulation time: 0 hr 17 min 36 sec) 
Heartbeat CPU  0 instructions:  474000000 cycles: 1117663164 heartbeat IPC: 0.38173 cumulative IPC: 0.37009 (Simulation time: 0 hr 17 min 38 sec) 
Heartbeat CPU  0 instructions:  475000000 cycles: 1120482562 heartbeat IPC: 0.35469 cumulative IPC: 0.37004 (Simulation time: 0 hr 17 min 40 sec) 
Heartbeat CPU  0 instructions:  476000000 cycles: 1123300642 heartbeat IPC: 0.35485 cumulative IPC: 0.37000 (Simulation time: 0 hr 17 min 42 sec) 
Heartbeat CPU  0 instructions:  477000003 cycles: 1126033382 heartbeat IPC: 0.36593 cumulative IPC: 0.36999 (Simulation time: 0 hr 17 min 45 sec) 
Heartbeat CPU  0 instructions:  478000001 cycles: 1128698704 heartbeat IPC: 0.37519 cumulative IPC: 0.37001 (Simulation time: 0 hr 17 min 47 sec) 
Heartbeat CPU  0 instructions:  479000001 cycles: 1131308919 heartbeat IPC: 0.38311 cumulative IPC: 0.37004 (Simulation time: 0 hr 17 min 49 sec) 
Heartbeat CPU  0 instructions:  480000000 cycles: 1134166426 heartbeat IPC: 0.34996 cumulative IPC: 0.36998 (Simulation time: 0 hr 17 min 51 sec) 
Heartbeat CPU  0 instructions:  481000000 cycles: 1136845228 heartbeat IPC: 0.37330 cumulative IPC: 0.36999 (Simulation time: 0 hr 17 min 54 sec) 
Heartbeat CPU  0 instructions:  482000000 cycles: 1139480279 heartbeat IPC: 0.37950 cumulative IPC: 0.37002 (Simulation time: 0 hr 17 min 56 sec) 
Heartbeat CPU  0 instructions:  483000000 cycles: 1142044359 heartbeat IPC: 0.39000 cumulative IPC: 0.37007 (Simulation time: 0 hr 17 min 58 sec) 
Heartbeat CPU  0 instructions:  484000000 cycles: 1144744147 heartbeat IPC: 0.37040 cumulative IPC: 0.37007 (Simulation time: 0 hr 18 min 0 sec) 
Heartbeat CPU  0 instructions:  485000000 cycles: 1147407410 heartbeat IPC: 0.37548 cumulative IPC: 0.37008 (Simulation time: 0 hr 18 min 3 sec) 
Heartbeat CPU  0 instructions:  486000000 cycles: 1150021167 heartbeat IPC: 0.38259 cumulative IPC: 0.37011 (Simulation time: 0 hr 18 min 5 sec) 
Heartbeat CPU  0 instructions:  487000003 cycles: 1152827037 heartbeat IPC: 0.35640 cumulative IPC: 0.37007 (Simulation time: 0 hr 18 min 7 sec) 
Heartbeat CPU  0 instructions:  488000000 cycles: 1155634160 heartbeat IPC: 0.35624 cumulative IPC: 0.37004 (Simulation time: 0 hr 18 min 10 sec) 
Heartbeat CPU  0 instructions:  489000000 cycles: 1158350546 heartbeat IPC: 0.36814 cumulative IPC: 0.37003 (Simulation time: 0 hr 18 min 12 sec) 
Heartbeat CPU  0 instructions:  490000003 cycles: 1161115295 heartbeat IPC: 0.36170 cumulative IPC: 0.37001 (Simulation time: 0 hr 18 min 14 sec) 
Heartbeat CPU  0 instructions:  491000001 cycles: 1163840397 heartbeat IPC: 0.36696 cumulative IPC: 0.37000 (Simulation time: 0 hr 18 min 17 sec) 
Heartbeat CPU  0 instructions:  492000000 cycles: 1166623157 heartbeat IPC: 0.35936 cumulative IPC: 0.36998 (Simulation time: 0 hr 18 min 19 sec) 
Heartbeat CPU  0 instructions:  493000000 cycles: 1169311373 heartbeat IPC: 0.37199 cumulative IPC: 0.36998 (Simulation time: 0 hr 18 min 21 sec) 
Heartbeat CPU  0 instructions:  494000000 cycles: 1171944022 heartbeat IPC: 0.37985 cumulative IPC: 0.37000 (Simulation time: 0 hr 18 min 24 sec) 
Heartbeat CPU  0 instructions:  495000001 cycles: 1174790082 heartbeat IPC: 0.35136 cumulative IPC: 0.36995 (Simulation time: 0 hr 18 min 26 sec) 
Heartbeat CPU  0 instructions:  496000000 cycles: 1177550733 heartbeat IPC: 0.36223 cumulative IPC: 0.36993 (Simulation time: 0 hr 18 min 28 sec) 
Heartbeat CPU  0 instructions:  497000001 cycles: 1180329408 heartbeat IPC: 0.35988 cumulative IPC: 0.36991 (Simulation time: 0 hr 18 min 31 sec) 
Heartbeat CPU  0 instructions:  498000000 cycles: 1183105567 heartbeat IPC: 0.36021 cumulative IPC: 0.36988 (Simulation time: 0 hr 18 min 33 sec) 
Heartbeat CPU  0 instructions:  499000002 cycles: 1185849391 heartbeat IPC: 0.36446 cumulative IPC: 0.36987 (Simulation time: 0 hr 18 min 35 sec) 
Heartbeat CPU  0 instructions:  500000000 cycles: 1188534955 heartbeat IPC: 0.37236 cumulative IPC: 0.36988 (Simulation time: 0 hr 18 min 37 sec) 
Heartbeat CPU  0 instructions:  501000000 cycles: 1191256172 heartbeat IPC: 0.36748 cumulative IPC: 0.36987 (Simulation time: 0 hr 18 min 40 sec) 
Heartbeat CPU  0 instructions:  502000000 cycles: 1194047439 heartbeat IPC: 0.35826 cumulative IPC: 0.36984 (Simulation time: 0 hr 18 min 42 sec) 
Heartbeat CPU  0 instructions:  503000002 cycles: 1196870652 heartbeat IPC: 0.35421 cumulative IPC: 0.36980 (Simulation time: 0 hr 18 min 44 sec) 
Heartbeat CPU  0 instructions:  504000000 cycles: 1199710611 heartbeat IPC: 0.35212 cumulative IPC: 0.36975 (Simulation time: 0 hr 18 min 46 sec) 
Heartbeat CPU  0 instructions:  505000001 cycles: 1202330317 heartbeat IPC: 0.38172 cumulative IPC: 0.36978 (Simulation time: 0 hr 18 min 49 sec) 
Heartbeat CPU  0 instructions:  506000001 cycles: 1205157866 heartbeat IPC: 0.35366 cumulative IPC: 0.36974 (Simulation time: 0 hr 18 min 51 sec) 
Heartbeat CPU  0 instructions:  507000001 cycles: 1207992872 heartbeat IPC: 0.35273 cumulative IPC: 0.36970 (Simulation time: 0 hr 18 min 53 sec) 
Heartbeat CPU  0 instructions:  508000000 cycles: 1210742001 heartbeat IPC: 0.36375 cumulative IPC: 0.36968 (Simulation time: 0 hr 18 min 56 sec) 
Heartbeat CPU  0 instructions:  509000001 cycles: 1213311254 heartbeat IPC: 0.38922 cumulative IPC: 0.36973 (Simulation time: 0 hr 18 min 58 sec) 
Heartbeat CPU  0 instructions:  510000003 cycles: 1216052508 heartbeat IPC: 0.36480 cumulative IPC: 0.36972 (Simulation time: 0 hr 19 min 0 sec) 
Heartbeat CPU  0 instructions:  511000001 cycles: 1218494196 heartbeat IPC: 0.40955 cumulative IPC: 0.36980 (Simulation time: 0 hr 19 min 2 sec) 
Heartbeat CPU  0 instructions:  512000000 cycles: 1221250463 heartbeat IPC: 0.36281 cumulative IPC: 0.36979 (Simulation time: 0 hr 19 min 5 sec) 
Heartbeat CPU  0 instructions:  513000001 cycles: 1223962191 heartbeat IPC: 0.36877 cumulative IPC: 0.36978 (Simulation time: 0 hr 19 min 7 sec) 
Heartbeat CPU  0 instructions:  514000002 cycles: 1226658319 heartbeat IPC: 0.37090 cumulative IPC: 0.36979 (Simulation time: 0 hr 19 min 9 sec) 
Heartbeat CPU  0 instructions:  515000001 cycles: 1229194275 heartbeat IPC: 0.39433 cumulative IPC: 0.36984 (Simulation time: 0 hr 19 min 11 sec) 
Heartbeat CPU  0 instructions:  516000000 cycles: 1231698618 heartbeat IPC: 0.39931 cumulative IPC: 0.36991 (Simulation time: 0 hr 19 min 14 sec) 
Heartbeat CPU  0 instructions:  517000002 cycles: 1234522672 heartbeat IPC: 0.35410 cumulative IPC: 0.36987 (Simulation time: 0 hr 19 min 16 sec) 
Heartbeat CPU  0 instructions:  518000001 cycles: 1237341014 heartbeat IPC: 0.35482 cumulative IPC: 0.36983 (Simulation time: 0 hr 19 min 18 sec) 
Heartbeat CPU  0 instructions:  519000001 cycles: 1240047471 heartbeat IPC: 0.36949 cumulative IPC: 0.36983 (Simulation time: 0 hr 19 min 21 sec) 
Heartbeat CPU  0 instructions:  520000000 cycles: 1242855864 heartbeat IPC: 0.35608 cumulative IPC: 0.36980 (Simulation time: 0 hr 19 min 23 sec) 
Heartbeat CPU  0 instructions:  521000000 cycles: 1245512579 heartbeat IPC: 0.37640 cumulative IPC: 0.36981 (Simulation time: 0 hr 19 min 25 sec) 
Heartbeat CPU  0 instructions:  522000000 cycles: 1248164005 heartbeat IPC: 0.37716 cumulative IPC: 0.36983 (Simulation time: 0 hr 19 min 27 sec) 
Heartbeat CPU  0 instructions:  523000002 cycles: 1250643523 heartbeat IPC: 0.40330 cumulative IPC: 0.36990 (Simulation time: 0 hr 19 min 30 sec) 
Heartbeat CPU  0 instructions:  524000000 cycles: 1253424176 heartbeat IPC: 0.35963 cumulative IPC: 0.36988 (Simulation time: 0 hr 19 min 32 sec) 
Heartbeat CPU  0 instructions:  525000000 cycles: 1256012606 heartbeat IPC: 0.38633 cumulative IPC: 0.36991 (Simulation time: 0 hr 19 min 34 sec) 
Heartbeat CPU  0 instructions:  526000000 cycles: 1258635358 heartbeat IPC: 0.38128 cumulative IPC: 0.36994 (Simulation time: 0 hr 19 min 37 sec) 
Heartbeat CPU  0 instructions:  527000000 cycles: 1260956533 heartbeat IPC: 0.43082 cumulative IPC: 0.37006 (Simulation time: 0 hr 19 min 39 sec) 
Heartbeat CPU  0 instructions:  528000000 cycles: 1263451491 heartbeat IPC: 0.40081 cumulative IPC: 0.37013 (Simulation time: 0 hr 19 min 41 sec) 
Heartbeat CPU  0 instructions:  529000001 cycles: 1265849310 heartbeat IPC: 0.41705 cumulative IPC: 0.37022 (Simulation time: 0 hr 19 min 43 sec) 
Heartbeat CPU  0 instructions:  530000000 cycles: 1268114676 heartbeat IPC: 0.44143 cumulative IPC: 0.37036 (Simulation time: 0 hr 19 min 45 sec) 
Heartbeat CPU  0 instructions:  531000001 cycles: 1270686190 heartbeat IPC: 0.38888 cumulative IPC: 0.37040 (Simulation time: 0 hr 19 min 47 sec) 
Heartbeat CPU  0 instructions:  532000000 cycles: 1272878109 heartbeat IPC: 0.45622 cumulative IPC: 0.37057 (Simulation time: 0 hr 19 min 50 sec) 
Heartbeat CPU  0 instructions:  533000000 cycles: 1275689181 heartbeat IPC: 0.35574 cumulative IPC: 0.37053 (Simulation time: 0 hr 19 min 52 sec) 
Heartbeat CPU  0 instructions:  534000003 cycles: 1278077683 heartbeat IPC: 0.41867 cumulative IPC: 0.37063 (Simulation time: 0 hr 19 min 54 sec) 
Heartbeat CPU  0 instructions:  535000002 cycles: 1280836856 heartbeat IPC: 0.36243 cumulative IPC: 0.37061 (Simulation time: 0 hr 19 min 56 sec) 
Heartbeat CPU  0 instructions:  536000000 cycles: 1283252621 heartbeat IPC: 0.41395 cumulative IPC: 0.37070 (Simulation time: 0 hr 19 min 58 sec) 
Heartbeat CPU  0 instructions:  537000002 cycles: 1285782116 heartbeat IPC: 0.39534 cumulative IPC: 0.37075 (Simulation time: 0 hr 20 min 1 sec) 
Heartbeat CPU  0 instructions:  538000000 cycles: 1288296178 heartbeat IPC: 0.39776 cumulative IPC: 0.37081 (Simulation time: 0 hr 20 min 3 sec) 
Heartbeat CPU  0 instructions:  539000001 cycles: 1290858251 heartbeat IPC: 0.39031 cumulative IPC: 0.37085 (Simulation time: 0 hr 20 min 5 sec) 
Heartbeat CPU  0 instructions:  540000000 cycles: 1293415121 heartbeat IPC: 0.39110 cumulative IPC: 0.37089 (Simulation time: 0 hr 20 min 7 sec) 
Heartbeat CPU  0 instructions:  541000001 cycles: 1296191906 heartbeat IPC: 0.36013 cumulative IPC: 0.37087 (Simulation time: 0 hr 20 min 10 sec) 
Heartbeat CPU  0 instructions:  542000001 cycles: 1298853377 heartbeat IPC: 0.37573 cumulative IPC: 0.37088 (Simulation time: 0 hr 20 min 12 sec) 
Heartbeat CPU  0 instructions:  543000002 cycles: 1301645310 heartbeat IPC: 0.35818 cumulative IPC: 0.37085 (Simulation time: 0 hr 20 min 14 sec) 
Heartbeat CPU  0 instructions:  544000000 cycles: 1304304631 heartbeat IPC: 0.37604 cumulative IPC: 0.37086 (Simulation time: 0 hr 20 min 16 sec) 
Heartbeat CPU  0 instructions:  545000001 cycles: 1306987299 heartbeat IPC: 0.37276 cumulative IPC: 0.37087 (Simulation time: 0 hr 20 min 19 sec) 
Heartbeat CPU  0 instructions:  546000001 cycles: 1309730970 heartbeat IPC: 0.36448 cumulative IPC: 0.37085 (Simulation time: 0 hr 20 min 21 sec) 
Heartbeat CPU  0 instructions:  547000000 cycles: 1312413307 heartbeat IPC: 0.37281 cumulative IPC: 0.37086 (Simulation time: 0 hr 20 min 23 sec) 
Heartbeat CPU  0 instructions:  548000000 cycles: 1314989830 heartbeat IPC: 0.38812 cumulative IPC: 0.37089 (Simulation time: 0 hr 20 min 26 sec) 
Heartbeat CPU  0 instructions:  549000000 cycles: 1317536696 heartbeat IPC: 0.39264 cumulative IPC: 0.37094 (Simulation time: 0 hr 20 min 28 sec) 
Heartbeat CPU  0 instructions:  550000001 cycles: 1320434303 heartbeat IPC: 0.34511 cumulative IPC: 0.37088 (Simulation time: 0 hr 20 min 30 sec) 
Heartbeat CPU  0 instructions:  551000003 cycles: 1323111574 heartbeat IPC: 0.37352 cumulative IPC: 0.37088 (Simulation time: 0 hr 20 min 32 sec) 
Heartbeat CPU  0 instructions:  552000000 cycles: 1325712941 heartbeat IPC: 0.38441 cumulative IPC: 0.37091 (Simulation time: 0 hr 20 min 35 sec) 
Heartbeat CPU  0 instructions:  553000002 cycles: 1328347765 heartbeat IPC: 0.37953 cumulative IPC: 0.37093 (Simulation time: 0 hr 20 min 37 sec) 
Heartbeat CPU  0 instructions:  554000000 cycles: 1330836344 heartbeat IPC: 0.40183 cumulative IPC: 0.37099 (Simulation time: 0 hr 20 min 39 sec) 
Heartbeat CPU  0 instructions:  555000003 cycles: 1333610246 heartbeat IPC: 0.36050 cumulative IPC: 0.37097 (Simulation time: 0 hr 20 min 42 sec) 
Heartbeat CPU  0 instructions:  556000000 cycles: 1336280169 heartbeat IPC: 0.37454 cumulative IPC: 0.37098 (Simulation time: 0 hr 20 min 44 sec) 
Heartbeat CPU  0 instructions:  557000000 cycles: 1338927063 heartbeat IPC: 0.37780 cumulative IPC: 0.37099 (Simulation time: 0 hr 20 min 46 sec) 
Heartbeat CPU  0 instructions:  558000001 cycles: 1341710434 heartbeat IPC: 0.35928 cumulative IPC: 0.37096 (Simulation time: 0 hr 20 min 48 sec) 
Heartbeat CPU  0 instructions:  559000001 cycles: 1344621442 heartbeat IPC: 0.34352 cumulative IPC: 0.37090 (Simulation time: 0 hr 20 min 51 sec) 
Heartbeat CPU  0 instructions:  560000000 cycles: 1347451674 heartbeat IPC: 0.35333 cumulative IPC: 0.37086 (Simulation time: 0 hr 20 min 53 sec) 
Heartbeat CPU  0 instructions:  561000002 cycles: 1350207584 heartbeat IPC: 0.36286 cumulative IPC: 0.37084 (Simulation time: 0 hr 20 min 55 sec) 
Heartbeat CPU  0 instructions:  562000002 cycles: 1352873730 heartbeat IPC: 0.37507 cumulative IPC: 0.37085 (Simulation time: 0 hr 20 min 57 sec) 
Heartbeat CPU  0 instructions:  563000000 cycles: 1355673479 heartbeat IPC: 0.35717 cumulative IPC: 0.37082 (Simulation time: 0 hr 21 min 0 sec) 
Heartbeat CPU  0 instructions:  564000000 cycles: 1358410346 heartbeat IPC: 0.36538 cumulative IPC: 0.37081 (Simulation time: 0 hr 21 min 2 sec) 
Heartbeat CPU  0 instructions:  565000000 cycles: 1361201000 heartbeat IPC: 0.35834 cumulative IPC: 0.37078 (Simulation time: 0 hr 21 min 4 sec) 
Heartbeat CPU  0 instructions:  566000001 cycles: 1363772922 heartbeat IPC: 0.38881 cumulative IPC: 0.37082 (Simulation time: 0 hr 21 min 7 sec) 
Heartbeat CPU  0 instructions:  567000000 cycles: 1366570485 heartbeat IPC: 0.35745 cumulative IPC: 0.37079 (Simulation time: 0 hr 21 min 9 sec) 
Heartbeat CPU  0 instructions:  568000000 cycles: 1369238119 heartbeat IPC: 0.37486 cumulative IPC: 0.37080 (Simulation time: 0 hr 21 min 11 sec) 
Heartbeat CPU  0 instructions:  569000001 cycles: 1372068829 heartbeat IPC: 0.35327 cumulative IPC: 0.37076 (Simulation time: 0 hr 21 min 13 sec) 
Heartbeat CPU  0 instructions:  570000002 cycles: 1374574647 heartbeat IPC: 0.39907 cumulative IPC: 0.37081 (Simulation time: 0 hr 21 min 16 sec) 
Heartbeat CPU  0 instructions:  571000000 cycles: 1377284471 heartbeat IPC: 0.36903 cumulative IPC: 0.37081 (Simulation time: 0 hr 21 min 18 sec) 
Heartbeat CPU  0 instructions:  572000000 cycles: 1379919993 heartbeat IPC: 0.37943 cumulative IPC: 0.37083 (Simulation time: 0 hr 21 min 20 sec) 
Heartbeat CPU  0 instructions:  573000001 cycles: 1382360364 heartbeat IPC: 0.40977 cumulative IPC: 0.37090 (Simulation time: 0 hr 21 min 22 sec) 
Heartbeat CPU  0 instructions:  574000001 cycles: 1385067913 heartbeat IPC: 0.36934 cumulative IPC: 0.37090 (Simulation time: 0 hr 21 min 25 sec) 
Heartbeat CPU  0 instructions:  575000002 cycles: 1387655971 heartbeat IPC: 0.38639 cumulative IPC: 0.37093 (Simulation time: 0 hr 21 min 27 sec) 
Heartbeat CPU  0 instructions:  576000000 cycles: 1390309907 heartbeat IPC: 0.37680 cumulative IPC: 0.37094 (Simulation time: 0 hr 21 min 29 sec) 
Heartbeat CPU  0 instructions:  577000000 cycles: 1392899026 heartbeat IPC: 0.38623 cumulative IPC: 0.37097 (Simulation time: 0 hr 21 min 31 sec) 
Heartbeat CPU  0 instructions:  578000002 cycles: 1395193527 heartbeat IPC: 0.43583 cumulative IPC: 0.37109 (Simulation time: 0 hr 21 min 33 sec) 
Heartbeat CPU  0 instructions:  579000000 cycles: 1397988277 heartbeat IPC: 0.35781 cumulative IPC: 0.37106 (Simulation time: 0 hr 21 min 36 sec) 
Heartbeat CPU  0 instructions:  580000000 cycles: 1400799288 heartbeat IPC: 0.35574 cumulative IPC: 0.37103 (Simulation time: 0 hr 21 min 38 sec) 
Heartbeat CPU  0 instructions:  581000001 cycles: 1403527223 heartbeat IPC: 0.36658 cumulative IPC: 0.37102 (Simulation time: 0 hr 21 min 40 sec) 
Heartbeat CPU  0 instructions:  582000001 cycles: 1406430158 heartbeat IPC: 0.34448 cumulative IPC: 0.37096 (Simulation time: 0 hr 21 min 43 sec) 
Heartbeat CPU  0 instructions:  583000000 cycles: 1409284910 heartbeat IPC: 0.35029 cumulative IPC: 0.37091 (Simulation time: 0 hr 21 min 45 sec) 
Heartbeat CPU  0 instructions:  584000000 cycles: 1411940436 heartbeat IPC: 0.37657 cumulative IPC: 0.37092 (Simulation time: 0 hr 21 min 47 sec) 
Heartbeat CPU  0 instructions:  585000003 cycles: 1414569776 heartbeat IPC: 0.38032 cumulative IPC: 0.37094 (Simulation time: 0 hr 21 min 50 sec) 
Heartbeat CPU  0 instructions:  586000000 cycles: 1417459547 heartbeat IPC: 0.34605 cumulative IPC: 0.37089 (Simulation time: 0 hr 21 min 52 sec) 
Heartbeat CPU  0 instructions:  587000000 cycles: 1420143008 heartbeat IPC: 0.37265 cumulative IPC: 0.37089 (Simulation time: 0 hr 21 min 54 sec) 
Heartbeat CPU  0 instructions:  588000000 cycles: 1422923701 heartbeat IPC: 0.35962 cumulative IPC: 0.37087 (Simulation time: 0 hr 21 min 56 sec) 
Heartbeat CPU  0 instructions:  589000000 cycles: 1425710627 heartbeat IPC: 0.35882 cumulative IPC: 0.37084 (Simulation time: 0 hr 21 min 59 sec) 
Heartbeat CPU  0 instructions:  590000001 cycles: 1428157972 heartbeat IPC: 0.40861 cumulative IPC: 0.37091 (Simulation time: 0 hr 22 min 1 sec) 
Heartbeat CPU  0 instructions:  591000003 cycles: 1430803122 heartbeat IPC: 0.37805 cumulative IPC: 0.37093 (Simulation time: 0 hr 22 min 3 sec) 
Heartbeat CPU  0 instructions:  592000000 cycles: 1433592412 heartbeat IPC: 0.35851 cumulative IPC: 0.37090 (Simulation time: 0 hr 22 min 5 sec) 
Heartbeat CPU  0 instructions:  593000000 cycles: 1436312756 heartbeat IPC: 0.36760 cumulative IPC: 0.37089 (Simulation time: 0 hr 22 min 7 sec) 
Heartbeat CPU  0 instructions:  594000000 cycles: 1438592339 heartbeat IPC: 0.43868 cumulative IPC: 0.37101 (Simulation time: 0 hr 22 min 10 sec) 
Heartbeat CPU  0 instructions:  595000001 cycles: 1441143827 heartbeat IPC: 0.39193 cumulative IPC: 0.37105 (Simulation time: 0 hr 22 min 12 sec) 
Heartbeat CPU  0 instructions:  596000000 cycles: 1443937240 heartbeat IPC: 0.35798 cumulative IPC: 0.37102 (Simulation time: 0 hr 22 min 14 sec) 
Heartbeat CPU  0 instructions:  597000000 cycles: 1446819675 heartbeat IPC: 0.34693 cumulative IPC: 0.37097 (Simulation time: 0 hr 22 min 16 sec) 
Heartbeat CPU  0 instructions:  598000000 cycles: 1449400385 heartbeat IPC: 0.38749 cumulative IPC: 0.37100 (Simulation time: 0 hr 22 min 18 sec) 
Heartbeat CPU  0 instructions:  599000000 cycles: 1452292472 heartbeat IPC: 0.34577 cumulative IPC: 0.37095 (Simulation time: 0 hr 22 min 20 sec) 
Heartbeat CPU  0 instructions:  600000000 cycles: 1454727050 heartbeat IPC: 0.41075 cumulative IPC: 0.37102 (Simulation time: 0 hr 22 min 23 sec) 
Finished CPU 0 instructions: 500000000 cycles: 1347634848 cumulative IPC: 0.37102 (Simulation time: 0 hr 22 min 23 sec) 

ChampSim completed all CPUs

[ROI Statistics]
Core_0_instructions 500000000
Core_0_cycles 1347634848
Core_0_IPC 0.37102

Core_0_branch_prediction_accuracy 85.18932
Core_0_branch_MPKI 24.43069
Core_0_average_ROB_occupancy_at_mispredict 38.24765

Core_0_L1D_total_access 155829450
Core_0_L1D_total_hit 153513814
Core_0_L1D_total_miss 2315636
Core_0_L1D_loads 89925551
Core_0_L1D_load_hit 89096019
Core_0_L1D_load_miss 829532
Core_0_L1D_RFOs 65903899
Core_0_L1D_RFO_hit 64417795
Core_0_L1D_RFO_miss 1486104
Core_0_L1D_prefetches 0
Core_0_L1D_prefetch_hit 0
Core_0_L1D_prefetch_miss 0
Core_0_L1D_writebacks 0
Core_0_L1D_writeback_hit 0
Core_0_L1D_writeback_miss 0
Core_0_L1D_prefetch_requested 0
Core_0_L1D_prefetch_dropped 0
Core_0_L1D_prefetch_issued 0
Core_0_L1D_prefetch_filled 0
Core_0_L1D_prefetch_useful 0
Core_0_L1D_prefetch_useless 0
Core_0_L1D_prefetch_late 0
Core_0_L1D_average_miss_latency 450.80150

Core_0_L1D_rq_access 125890307
Core_0_L1D_rq_forward 0
Core_0_L1D_rq_merged 35872805
Core_0_L1D_rq_to_cache 90016730
Core_0_L1D_rq_full 0

Core_0_L1D_wq_access 70505122
Core_0_L1D_wq_forward 772
Core_0_L1D_wq_merged 423363
Core_0_L1D_wq_to_cache 70081759
Core_0_L1D_wq_full 52702051

Core_0_L1D_pq_access 0
Core_0_L1D_pq_forward 0
Core_0_L1D_pq_merged 0
Core_0_L1D_pq_to_cache 0
Core_0_L1D_pq_full 0

Core_0_L1D_acc_epochs 1418378
Core_0_L1D_acc_level_0 1418378
Core_0_L1D_acc_level_1 0
Core_0_L1D_acc_level_2 0
Core_0_L1D_acc_level_3 0
Core_0_L1D_acc_level_4 0
Core_0_L1D_acc_level_5 0
Core_0_L1D_acc_level_6 0
Core_0_L1D_acc_level_7 0
Core_0_L1D_acc_level_8 0
Core_0_L1D_acc_level_9 0

Core_0_L1I_total_access 99874136
Core_0_L1I_total_hit 97929200
Core_0_L1I_total_miss 1944936
Core_0_L1I_loads 99874136
Core_0_L1I_load_hit 97929200
Core_0_L1I_load_miss 1944936
Core_0_L1I_RFOs 0
Core_0_L1I_RFO_hit 0
Core_0_L1I_RFO_miss 0
Core_0_L1I_prefetches 0
Core_0_L1I_prefetch_hit 0
Core_0_L1I_prefetch_miss 0
Core_0_L1I_writebacks 0
Core_0_L1I_writeback_hit 0
Core_0_L1I_writeback_miss 0
Core_0_L1I_prefetch_requested 0
Core_0_L1I_prefetch_dropped 0
Core_0_L1I_prefetch_issued 0
Core_0_L1I_prefetch_filled 0
Core_0_L1I_prefetch_useful 0
Core_0_L1I_prefetch_useless 0
Core_0_L1I_prefetch_late 0
Core_0_L1I_average_miss_latency 12.80640

Core_0_L1I_rq_access 499999934
Core_0_L1I_rq_forward 0
Core_0_L1I_rq_merged 399410360
Core_0_L1I_rq_to_cache 100589574
Core_0_L1I_rq_full 0

Core_0_L1I_wq_access 0
Core_0_L1I_wq_forward 0
Core_0_L1I_wq_merged 0
Core_0_L1I_wq_to_cache 0
Core_0_L1I_wq_full 0

Core_0_L1I_pq_access 0
Core_0_L1I_pq_forward 0
Core_0_L1I_pq_merged 0
Core_0_L1I_pq_to_cache 0
Core_0_L1I_pq_full 0

Core_0_L1I_acc_epochs 1418378
Core_0_L1I_acc_level_0 1418378
Core_0_L1I_acc_level_1 0
Core_0_L1I_acc_level_2 0
Core_0_L1I_acc_level_3 0
Core_0_L1I_acc_level_4 0
Core_0_L1I_acc_level_5 0
Core_0_L1I_acc_level_6 0
Core_0_L1I_acc_level_7 0
Core_0_L1I_acc_level_8 0
Core_0_L1I_acc_level_9 0

Core_0_L2C_total_access 6706907
Core_0_L2C_total_hit 5383318
Core_0_L2C_total_miss 1323589
Core_0_L2C_loads 2774446
Core_0_L2C_load_hit 2348731
Core_0_L2C_load_miss 425715
Core_0_L2C_RFOs 1486059
Core_0_L2C_RFO_hit 610982
Core_0_L2C_RFO_miss 875077
Core_0_L2C_prefetches 692214
Core_0_L2C_prefetch_hit 671274
Core_0_L2C_prefetch_miss 20940
Core_0_L2C_writebacks 1754188
Core_0_L2C_writeback_hit 1752331
Core_0_L2C_writeback_miss 1857
Core_0_L2C_prefetch_requested 1551540
Core_0_L2C_prefetch_dropped 0
Core_0_L2C_prefetch_issued 1551540
Core_0_L2C_prefetch_filled 22223
Core_0_L2C_prefetch_useful 21995
Core_0_L2C_prefetch_useless 225
Core_0_L2C_prefetch_late 6582
Core_0_L2C_average_miss_latency 767.06937

Core_0_L2C_rq_access 4260572
Core_0_L2C_rq_forward 0
Core_0_L2C_rq_merged 0
Core_0_L2C_rq_to_cache 4260505
Core_0_L2C_rq_full 0

Core_0_L2C_wq_access 1754188
Core_0_L2C_wq_forward 68
Core_0_L2C_wq_merged 0
Core_0_L2C_wq_to_cache 1754188
Core_0_L2C_wq_full 0

Core_0_L2C_pq_access 1551540
Core_0_L2C_pq_forward 0
Core_0_L2C_pq_merged 239579
Core_0_L2C_pq_to_cache 1311960
Core_0_L2C_pq_full 0

Core_0_L2C_acc_epochs 1418378
Core_0_L2C_acc_level_0 1412524
Core_0_L2C_acc_level_1 441
Core_0_L2C_acc_level_2 425
Core_0_L2C_acc_level_3 194
Core_0_L2C_acc_level_4 246
Core_0_L2C_acc_level_5 492
Core_0_L2C_acc_level_6 199
Core_0_L2C_acc_level_7 347
Core_0_L2C_acc_level_8 439
Core_0_L2C_acc_level_9 3071

Core_0_LLC_total_access 2730948
Core_0_LLC_total_hit 1165192
Core_0_LLC_total_miss 1565756
Core_0_LLC_loads 419133
Core_0_LLC_load_hit 325830
Core_0_LLC_load_miss 93303
Core_0_LLC_RFOs 875075
Core_0_LLC_RFO_hit 121709
Core_0_LLC_RFO_miss 753366
Core_0_LLC_prefetches 414845
Core_0_LLC_prefetch_hit 363873
Core_0_LLC_prefetch_miss 50972
Core_0_LLC_writebacks 1021895
Core_0_LLC_writeback_hit 353780
Core_0_LLC_writeback_miss 668115
Core_0_LLC_prefetch_requested 0
Core_0_LLC_prefetch_dropped 0
Core_0_LLC_prefetch_issued 0
Core_0_LLC_prefetch_filled 64784
Core_0_LLC_prefetch_useful 39892
Core_0_LLC_prefetch_useless 22820
Core_0_LLC_prefetch_late 2812
Core_0_LLC_average_miss_latency 629.70564

Core_0_LLC_rq_access 1294210
Core_0_LLC_rq_forward 0
Core_0_LLC_rq_merged 0
Core_0_LLC_rq_to_cache 1294208
Core_0_LLC_rq_full 0

Core_0_LLC_wq_access 1021895
Core_0_LLC_wq_forward 2
Core_0_LLC_wq_merged 0
Core_0_LLC_wq_to_cache 1021895
Core_0_LLC_wq_full 0

Core_0_LLC_pq_access 480505
Core_0_LLC_pq_forward 0
Core_0_LLC_pq_merged 6500
Core_0_LLC_pq_to_cache 474005
Core_0_LLC_pq_full 0

Core_0_LLC_acc_epochs 1420632
Core_0_LLC_acc_level_0 1366201
Core_0_LLC_acc_level_1 19056
Core_0_LLC_acc_level_2 18006
Core_0_LLC_acc_level_3 809
Core_0_LLC_acc_level_4 231
Core_0_LLC_acc_level_5 14419
Core_0_LLC_acc_level_6 298
Core_0_LLC_acc_level_7 318
Core_0_LLC_acc_level_8 149
Core_0_LLC_acc_level_9 1145

Core_0_major_page_fault 0
Core_0_minor_page_fault 6639

spp.pref.total 1551540
spp.pref.at_L2 65762
spp.pref.at_LLC 1485778

spp.depth.max 11
spp.depth.min 0
spp.depth.avg 0

spp.breadth.max 2
spp.breadth.min 0
spp.breadth.avg 0

delta_1 1661711
delta_-1 19601
delta_7 13092
delta_2 11232
delta_8 5995
delta_4 5374
delta_-2 4535
delta_3 2519
delta_-6 718
delta_6 708
delta_-7 280
delta_9 262
delta_-5 103
delta_25 88
delta_-9 85
delta_13 48
delta_-24 46
delta_-25 43
delta_-3 32
delta_20 29
delta_26 13
delta_-13 12
delta_5 12
delta_-11 9
delta_-26 9
delta_-4 9
delta_-14 9
delta_-38 7
delta_-23 6
delta_11 3
delta_21 3
delta_-48 1
delta_14 1
delta_-16 1

depth_1_delta_1 962744
depth_1_delta_7 12853
depth_1_delta_-1 12240
depth_1_delta_2 9778
depth_1_delta_8 5927
depth_1_delta_4 4404
depth_1_delta_-2 4097
depth_1_delta_3 2487
depth_1_delta_-6 718
depth_1_delta_6 458
depth_1_delta_-7 252
depth_1_delta_9 203
depth_1_delta_25 77
depth_1_delta_-5 70
depth_1_delta_13 47
depth_1_delta_-25 43
depth_1_delta_-24 38
depth_1_delta_-9 37
depth_1_delta_20 29
depth_1_delta_-3 21
depth_1_delta_-13 12
depth_1_delta_5 12
depth_1_delta_26 12
depth_1_delta_-11 9
depth_1_delta_-26 9
depth_1_delta_-4 9
depth_1_delta_-14 9
depth_1_delta_-38 7
depth_1_delta_-23 6
depth_1_delta_11 3
depth_1_delta_21 3
depth_1_delta_-48 1
depth_1_delta_14 1
depth_1_delta_-16 1
depth_2_delta_1 134136
depth_2_delta_-1 3873
depth_2_delta_2 1361
depth_2_delta_4 943
depth_2_delta_-2 391
depth_2_delta_7 196
depth_2_delta_6 123
depth_2_delta_8 68
depth_2_delta_9 52
depth_2_delta_3 32
depth_2_delta_-5 23
depth_2_delta_-9 19
depth_2_delta_-7 15
depth_2_delta_25 11
depth_2_delta_-3 9
depth_2_delta_-24 8
depth_2_delta_26 1
depth_2_delta_13 1
depth_3_delta_1 110994
depth_3_delta_-1 1831
depth_3_delta_6 81
depth_3_delta_2 80
depth_3_delta_-2 42
depth_3_delta_4 27
depth_3_delta_7 25
depth_3_delta_-9 15
depth_3_delta_-7 9
depth_3_delta_-5 8
depth_3_delta_9 7
depth_3_delta_-3 2
depth_4_delta_1 104300
depth_4_delta_-1 765
depth_4_delta_6 34
depth_4_delta_7 13
depth_4_delta_2 12
depth_4_delta_-9 11
depth_4_delta_-2 5
depth_4_delta_-7 4
depth_4_delta_-5 2
depth_5_delta_1 100439
depth_5_delta_-1 421
depth_5_delta_6 11
depth_5_delta_7 5
depth_5_delta_-9 3
depth_5_delta_2 1
depth_6_delta_1 84805
depth_6_delta_-1 237
depth_6_delta_6 1
depth_7_delta_1 69369
depth_7_delta_-1 129
depth_8_delta_1 54453
depth_8_delta_-1 72
depth_9_delta_1 31309
depth_9_delta_-1 28
depth_10_delta_1 9101
depth_10_delta_-1 5
depth_11_delta_1 61

Channel_0_RQ_row_buffer_hit 167311
Channel_0_RQ_row_buffer_miss 730326
Channel_0_WQ_row_buffer_hit 123192
Channel_0_WQ_row_buffer_miss 730046
Channel_0_WQ_full 0
Channel_0_dbus_congested 1474622

avg_congested_cycle 24

DRAM_bw_pochs 5682528
DRAM_bw_level_0 5469905
DRAM_bw_level_1 79334
DRAM_bw_level_2 59191
DRAM_bw_level_3 74098
