*************************************************
   ChampSim Multicore Out-of-Order Simulator
   Last compiled: Dec 11 2024 17:59:53
*************************************************
parsing config file: /home/functionmain/桌面/Pythia/config/mlop.ini

trace_0 /home/functionmain/桌面/Pythia/traces/445.gobmk-36B.champsimtrace.xz
adding L2C_PREFETCHER: MLOP
Initialize SHIP state
warmup_instructions 100000000
simulation_instructions 500000000
champsim_seed 171
measure_ipc 0
measure_ipc_epoch 1000
measure_dram_bw 1
measure_dram_bw_epoch 256
measure_cache_acc 1
measure_cache_acc_epoch 1024
l1d_perfect 0
l2c_perfect 0
llc_perfect 0
l1d_semi_perfect 0
l2c_semi_perfect 0
llc_semi_perfect 0
semi_perfect_cache_page_buffer_size 64

num_cpus 1
cpu_freq 4000
dram_io_freq 150
page_size 4096
block_size 64
max_read_per_cycle 8
max_fill_per_cycle 1
dram_channels 1
log2_dram_channels 0
dram_ranks 1
dram_banks 8
dram_rows 65536
dram_columns 128
dram_row_size 8
dram_size 4096
dram_pages 1048576

fetch_width 6
decode_width 6
exec_width 4
lq_width 2
sq_width 2
retire_width 4
scheduler_size 128
branch_mispredict_penalty 20
rob_size 256
lq_size 72
sq_size 56
num_instr_destinations_sparc 4
num_instr_destinations 2
num_instr_sources 4

itlb_set 16
itlb_way 8
itlb_rq_size 16
itlb_wq_size 16
itlb_pq_size 0
itlb_mshr_size 8
itlb_latency 1

dtlb_set 16
dtlb_way 4
dtlb_rq_size 16
dtlb_wq_size 16
dtlb_pq_size 0
dtlb_mshr_size 8
dtlb_latency 1

stlb_set 128
stlb_way 12
stlb_rq_size 32
stlb_wq_size 32
stlb_pq_size 0
stlb_mshr_size 16
stlb_latency 8

l1i_size 32
l1i_set 64
l1i_way 8
l1i_rq_size 64
l1i_wq_size 64
l1i_pq_size 8
l1i_mshr_size 8
l1i_latency 1

l1d_size 32
l1d_set 64
l1d_way 8
l1d_rq_size 64
l1d_wq_size 64
l1d_pq_size 8
l1d_mshr_size 16
l1d_latency 4

l2c_size 256
l2c_set 512
l2c_way 8
l2c_rq_size 32
l2c_wq_size 32
l2c_pq_size 32
l2c_mshr_size 32
l2c_latency 10

llc_size 2048
llc_set 2048
llc_way 16
llc_rq_size 32
llc_wq_size 32
llc_pq_size 32
llc_mshr_size 64
llc_latency 20

dram_channel_width 8
dram_wq_size 64
dram_rq_size 64
tRP 15
tRCD 15
tCAS 12.5
dram_dbus_turn_around_time 30
dram_write_high_wm 56
dram_write_low_wm 48
min_dram_writes_per_switch 16
dram_mtps 150
dram_dbus_return_time 213

mlop_pref_degree 16
mlop_num_updates 500
mlop_l1d_thresh 2
mlop_l2c_thresh 0.75
mlop_llc_thresh 0.3
mlop_debug_level 0
mlop_blocks_in_cache 4096
mlop_blocks_in_zone 64
mlop_amt_size 2048
mlop_PF_DEGREE 16
mlop_NUM_UPDATES 500
mlop_L1D_THRESH 1000
mlop_L2C_THRESH 375
mlop_LLC_THRESH 150
mlop_ORIGIN 63
mlop_MAX_OFFSET 63
mlop_MIN_OFFSET -63
mlop_ORIGIN 63
mlop_NUM_OFFSETS 127


Heartbeat CPU  0 instructions:    1000000 cycles:    1143278 heartbeat IPC: 0.87468 cumulative IPC: 0.87468 (Simulation time: 0 hr 0 min 1 sec) 
Heartbeat CPU  0 instructions:    2000000 cycles:    2306592 heartbeat IPC: 0.85961 cumulative IPC: 0.86708 (Simulation time: 0 hr 0 min 2 sec) 
Heartbeat CPU  0 instructions:    3000000 cycles:    3458990 heartbeat IPC: 0.86776 cumulative IPC: 0.86731 (Simulation time: 0 hr 0 min 4 sec) 
Heartbeat CPU  0 instructions:    4000000 cycles:    4510376 heartbeat IPC: 0.95113 cumulative IPC: 0.88684 (Simulation time: 0 hr 0 min 5 sec) 
Heartbeat CPU  0 instructions:    5000001 cycles:    5594134 heartbeat IPC: 0.92272 cumulative IPC: 0.89379 (Simulation time: 0 hr 0 min 6 sec) 
Heartbeat CPU  0 instructions:    6000000 cycles:    6675139 heartbeat IPC: 0.92506 cumulative IPC: 0.89886 (Simulation time: 0 hr 0 min 7 sec) 
Heartbeat CPU  0 instructions:    7000002 cycles:    7776423 heartbeat IPC: 0.90803 cumulative IPC: 0.90016 (Simulation time: 0 hr 0 min 8 sec) 
Heartbeat CPU  0 instructions:    8000000 cycles:    8891380 heartbeat IPC: 0.89689 cumulative IPC: 0.89975 (Simulation time: 0 hr 0 min 9 sec) 
Heartbeat CPU  0 instructions:    9000002 cycles:   10003072 heartbeat IPC: 0.89953 cumulative IPC: 0.89972 (Simulation time: 0 hr 0 min 11 sec) 
Heartbeat CPU  0 instructions:   10000000 cycles:   10942059 heartbeat IPC: 1.06498 cumulative IPC: 0.91390 (Simulation time: 0 hr 0 min 12 sec) 
Heartbeat CPU  0 instructions:   11000002 cycles:   11925942 heartbeat IPC: 1.01638 cumulative IPC: 0.92236 (Simulation time: 0 hr 0 min 13 sec) 
Heartbeat CPU  0 instructions:   12000000 cycles:   13063896 heartbeat IPC: 0.87877 cumulative IPC: 0.91856 (Simulation time: 0 hr 0 min 14 sec) 
Heartbeat CPU  0 instructions:   13000001 cycles:   14084712 heartbeat IPC: 0.97961 cumulative IPC: 0.92299 (Simulation time: 0 hr 0 min 15 sec) 
Heartbeat CPU  0 instructions:   14000001 cycles:   15201592 heartbeat IPC: 0.89535 cumulative IPC: 0.92096 (Simulation time: 0 hr 0 min 16 sec) 
Heartbeat CPU  0 instructions:   15000003 cycles:   16231128 heartbeat IPC: 0.97131 cumulative IPC: 0.92415 (Simulation time: 0 hr 0 min 17 sec) 
Heartbeat CPU  0 instructions:   16000000 cycles:   17273433 heartbeat IPC: 0.95941 cumulative IPC: 0.92628 (Simulation time: 0 hr 0 min 19 sec) 
Heartbeat CPU  0 instructions:   17000001 cycles:   18298312 heartbeat IPC: 0.97573 cumulative IPC: 0.92905 (Simulation time: 0 hr 0 min 20 sec) 
Heartbeat CPU  0 instructions:   18000001 cycles:   19402802 heartbeat IPC: 0.90540 cumulative IPC: 0.92770 (Simulation time: 0 hr 0 min 21 sec) 
Heartbeat CPU  0 instructions:   19000003 cycles:   20431279 heartbeat IPC: 0.97231 cumulative IPC: 0.92995 (Simulation time: 0 hr 0 min 22 sec) 
Heartbeat CPU  0 instructions:   20000000 cycles:   21406095 heartbeat IPC: 1.02583 cumulative IPC: 0.93431 (Simulation time: 0 hr 0 min 23 sec) 
Heartbeat CPU  0 instructions:   21000002 cycles:   22410044 heartbeat IPC: 0.99607 cumulative IPC: 0.93708 (Simulation time: 0 hr 0 min 25 sec) 
Heartbeat CPU  0 instructions:   22000002 cycles:   23402425 heartbeat IPC: 1.00768 cumulative IPC: 0.94007 (Simulation time: 0 hr 0 min 26 sec) 
Heartbeat CPU  0 instructions:   23000000 cycles:   24442868 heartbeat IPC: 0.96113 cumulative IPC: 0.94097 (Simulation time: 0 hr 0 min 27 sec) 
Heartbeat CPU  0 instructions:   24000000 cycles:   25399386 heartbeat IPC: 1.04546 cumulative IPC: 0.94490 (Simulation time: 0 hr 0 min 28 sec) 
Heartbeat CPU  0 instructions:   25000000 cycles:   26457628 heartbeat IPC: 0.94496 cumulative IPC: 0.94491 (Simulation time: 0 hr 0 min 29 sec) 
Heartbeat CPU  0 instructions:   26000001 cycles:   27519932 heartbeat IPC: 0.94135 cumulative IPC: 0.94477 (Simulation time: 0 hr 0 min 31 sec) 
Heartbeat CPU  0 instructions:   27000001 cycles:   28508464 heartbeat IPC: 1.01160 cumulative IPC: 0.94709 (Simulation time: 0 hr 0 min 32 sec) 
Heartbeat CPU  0 instructions:   28000000 cycles:   29570441 heartbeat IPC: 0.94164 cumulative IPC: 0.94689 (Simulation time: 0 hr 0 min 33 sec) 
Heartbeat CPU  0 instructions:   29000002 cycles:   30607209 heartbeat IPC: 0.96454 cumulative IPC: 0.94749 (Simulation time: 0 hr 0 min 34 sec) 
Heartbeat CPU  0 instructions:   30000001 cycles:   31604551 heartbeat IPC: 1.00266 cumulative IPC: 0.94923 (Simulation time: 0 hr 0 min 35 sec) 
Heartbeat CPU  0 instructions:   31000002 cycles:   32714333 heartbeat IPC: 0.90108 cumulative IPC: 0.94760 (Simulation time: 0 hr 0 min 37 sec) 
Heartbeat CPU  0 instructions:   32000000 cycles:   33763184 heartbeat IPC: 0.95342 cumulative IPC: 0.94778 (Simulation time: 0 hr 0 min 38 sec) 
Heartbeat CPU  0 instructions:   33000000 cycles:   34830069 heartbeat IPC: 0.93731 cumulative IPC: 0.94746 (Simulation time: 0 hr 0 min 39 sec) 
Heartbeat CPU  0 instructions:   34000000 cycles:   35877020 heartbeat IPC: 0.95515 cumulative IPC: 0.94768 (Simulation time: 0 hr 0 min 40 sec) 
Heartbeat CPU  0 instructions:   35000003 cycles:   36873489 heartbeat IPC: 1.00355 cumulative IPC: 0.94919 (Simulation time: 0 hr 0 min 41 sec) 
Heartbeat CPU  0 instructions:   36000000 cycles:   37969805 heartbeat IPC: 0.91214 cumulative IPC: 0.94812 (Simulation time: 0 hr 0 min 42 sec) 
Heartbeat CPU  0 instructions:   37000003 cycles:   39031473 heartbeat IPC: 0.94192 cumulative IPC: 0.94795 (Simulation time: 0 hr 0 min 44 sec) 
Heartbeat CPU  0 instructions:   38000002 cycles:   40054959 heartbeat IPC: 0.97705 cumulative IPC: 0.94870 (Simulation time: 0 hr 0 min 45 sec) 
Heartbeat CPU  0 instructions:   39000003 cycles:   41107629 heartbeat IPC: 0.94997 cumulative IPC: 0.94873 (Simulation time: 0 hr 0 min 46 sec) 
Heartbeat CPU  0 instructions:   40000000 cycles:   42183271 heartbeat IPC: 0.92967 cumulative IPC: 0.94824 (Simulation time: 0 hr 0 min 47 sec) 
Heartbeat CPU  0 instructions:   41000003 cycles:   43305636 heartbeat IPC: 0.89098 cumulative IPC: 0.94676 (Simulation time: 0 hr 0 min 48 sec) 
Heartbeat CPU  0 instructions:   42000001 cycles:   44336358 heartbeat IPC: 0.97019 cumulative IPC: 0.94730 (Simulation time: 0 hr 0 min 50 sec) 
Heartbeat CPU  0 instructions:   43000002 cycles:   45356701 heartbeat IPC: 0.98006 cumulative IPC: 0.94804 (Simulation time: 0 hr 0 min 51 sec) 
Heartbeat CPU  0 instructions:   44000000 cycles:   46440235 heartbeat IPC: 0.92290 cumulative IPC: 0.94745 (Simulation time: 0 hr 0 min 52 sec) 
Heartbeat CPU  0 instructions:   45000001 cycles:   47555012 heartbeat IPC: 0.89704 cumulative IPC: 0.94627 (Simulation time: 0 hr 0 min 53 sec) 
Heartbeat CPU  0 instructions:   46000002 cycles:   48612288 heartbeat IPC: 0.94583 cumulative IPC: 0.94626 (Simulation time: 0 hr 0 min 54 sec) 
Heartbeat CPU  0 instructions:   47000003 cycles:   49579997 heartbeat IPC: 1.03337 cumulative IPC: 0.94796 (Simulation time: 0 hr 0 min 55 sec) 
Heartbeat CPU  0 instructions:   48000000 cycles:   50581695 heartbeat IPC: 0.99830 cumulative IPC: 0.94896 (Simulation time: 0 hr 0 min 57 sec) 
Heartbeat CPU  0 instructions:   49000000 cycles:   51638235 heartbeat IPC: 0.94649 cumulative IPC: 0.94891 (Simulation time: 0 hr 0 min 58 sec) 
Heartbeat CPU  0 instructions:   50000001 cycles:   52684097 heartbeat IPC: 0.95615 cumulative IPC: 0.94905 (Simulation time: 0 hr 0 min 59 sec) 
Heartbeat CPU  0 instructions:   51000001 cycles:   53732991 heartbeat IPC: 0.95339 cumulative IPC: 0.94914 (Simulation time: 0 hr 1 min 0 sec) 
Heartbeat CPU  0 instructions:   52000000 cycles:   54800673 heartbeat IPC: 0.93661 cumulative IPC: 0.94889 (Simulation time: 0 hr 1 min 1 sec) 
Heartbeat CPU  0 instructions:   53000000 cycles:   55907903 heartbeat IPC: 0.90315 cumulative IPC: 0.94799 (Simulation time: 0 hr 1 min 3 sec) 
Heartbeat CPU  0 instructions:   54000003 cycles:   57025297 heartbeat IPC: 0.89494 cumulative IPC: 0.94695 (Simulation time: 0 hr 1 min 4 sec) 
Heartbeat CPU  0 instructions:   55000003 cycles:   58113305 heartbeat IPC: 0.91911 cumulative IPC: 0.94643 (Simulation time: 0 hr 1 min 5 sec) 
Heartbeat CPU  0 instructions:   56000000 cycles:   59174014 heartbeat IPC: 0.94276 cumulative IPC: 0.94636 (Simulation time: 0 hr 1 min 6 sec) 
Heartbeat CPU  0 instructions:   57000000 cycles:   60280255 heartbeat IPC: 0.90396 cumulative IPC: 0.94558 (Simulation time: 0 hr 1 min 7 sec) 
Heartbeat CPU  0 instructions:   58000000 cycles:   61324427 heartbeat IPC: 0.95770 cumulative IPC: 0.94579 (Simulation time: 0 hr 1 min 9 sec) 
Heartbeat CPU  0 instructions:   59000003 cycles:   62435091 heartbeat IPC: 0.90036 cumulative IPC: 0.94498 (Simulation time: 0 hr 1 min 10 sec) 
Heartbeat CPU  0 instructions:   60000000 cycles:   63503988 heartbeat IPC: 0.93554 cumulative IPC: 0.94482 (Simulation time: 0 hr 1 min 11 sec) 
Heartbeat CPU  0 instructions:   61000001 cycles:   64644748 heartbeat IPC: 0.87661 cumulative IPC: 0.94362 (Simulation time: 0 hr 1 min 12 sec) 
Heartbeat CPU  0 instructions:   62000001 cycles:   65695371 heartbeat IPC: 0.95182 cumulative IPC: 0.94375 (Simulation time: 0 hr 1 min 13 sec) 
Heartbeat CPU  0 instructions:   63000000 cycles:   66746625 heartbeat IPC: 0.95124 cumulative IPC: 0.94387 (Simulation time: 0 hr 1 min 14 sec) 
Heartbeat CPU  0 instructions:   64000000 cycles:   67820204 heartbeat IPC: 0.93146 cumulative IPC: 0.94367 (Simulation time: 0 hr 1 min 16 sec) 
Heartbeat CPU  0 instructions:   65000000 cycles:   68901743 heartbeat IPC: 0.92461 cumulative IPC: 0.94337 (Simulation time: 0 hr 1 min 17 sec) 
Heartbeat CPU  0 instructions:   66000000 cycles:   69992992 heartbeat IPC: 0.91638 cumulative IPC: 0.94295 (Simulation time: 0 hr 1 min 18 sec) 
Heartbeat CPU  0 instructions:   67000000 cycles:   71024349 heartbeat IPC: 0.96960 cumulative IPC: 0.94334 (Simulation time: 0 hr 1 min 19 sec) 
Heartbeat CPU  0 instructions:   68000000 cycles:   72080073 heartbeat IPC: 0.94722 cumulative IPC: 0.94340 (Simulation time: 0 hr 1 min 21 sec) 
Heartbeat CPU  0 instructions:   69000003 cycles:   73168180 heartbeat IPC: 0.91903 cumulative IPC: 0.94303 (Simulation time: 0 hr 1 min 22 sec) 
Heartbeat CPU  0 instructions:   70000001 cycles:   74349835 heartbeat IPC: 0.84627 cumulative IPC: 0.94150 (Simulation time: 0 hr 1 min 23 sec) 
Heartbeat CPU  0 instructions:   71000001 cycles:   75368362 heartbeat IPC: 0.98181 cumulative IPC: 0.94204 (Simulation time: 0 hr 1 min 24 sec) 
Heartbeat CPU  0 instructions:   72000000 cycles:   76441008 heartbeat IPC: 0.93227 cumulative IPC: 0.94190 (Simulation time: 0 hr 1 min 25 sec) 
Heartbeat CPU  0 instructions:   73000002 cycles:   77568954 heartbeat IPC: 0.88657 cumulative IPC: 0.94110 (Simulation time: 0 hr 1 min 26 sec) 
Heartbeat CPU  0 instructions:   74000000 cycles:   78645869 heartbeat IPC: 0.92858 cumulative IPC: 0.94093 (Simulation time: 0 hr 1 min 28 sec) 
Heartbeat CPU  0 instructions:   75000001 cycles:   79724241 heartbeat IPC: 0.92732 cumulative IPC: 0.94074 (Simulation time: 0 hr 1 min 29 sec) 
Heartbeat CPU  0 instructions:   76000000 cycles:   80701089 heartbeat IPC: 1.02370 cumulative IPC: 0.94175 (Simulation time: 0 hr 1 min 30 sec) 
Heartbeat CPU  0 instructions:   77000001 cycles:   81789338 heartbeat IPC: 0.91891 cumulative IPC: 0.94144 (Simulation time: 0 hr 1 min 31 sec) 
Heartbeat CPU  0 instructions:   78000000 cycles:   82839722 heartbeat IPC: 0.95203 cumulative IPC: 0.94158 (Simulation time: 0 hr 1 min 32 sec) 
Heartbeat CPU  0 instructions:   79000000 cycles:   83952981 heartbeat IPC: 0.89826 cumulative IPC: 0.94100 (Simulation time: 0 hr 1 min 33 sec) 
Heartbeat CPU  0 instructions:   80000000 cycles:   84956037 heartbeat IPC: 0.99695 cumulative IPC: 0.94166 (Simulation time: 0 hr 1 min 35 sec) 
Heartbeat CPU  0 instructions:   81000003 cycles:   85973450 heartbeat IPC: 0.98289 cumulative IPC: 0.94215 (Simulation time: 0 hr 1 min 36 sec) 
Heartbeat CPU  0 instructions:   82000002 cycles:   87069923 heartbeat IPC: 0.91201 cumulative IPC: 0.94177 (Simulation time: 0 hr 1 min 37 sec) 
Heartbeat CPU  0 instructions:   83000001 cycles:   88163570 heartbeat IPC: 0.91437 cumulative IPC: 0.94143 (Simulation time: 0 hr 1 min 38 sec) 
Heartbeat CPU  0 instructions:   84000000 cycles:   89117129 heartbeat IPC: 1.04870 cumulative IPC: 0.94258 (Simulation time: 0 hr 1 min 39 sec) 
Heartbeat CPU  0 instructions:   85000001 cycles:   90257383 heartbeat IPC: 0.87700 cumulative IPC: 0.94175 (Simulation time: 0 hr 1 min 41 sec) 
Heartbeat CPU  0 instructions:   86000000 cycles:   91420344 heartbeat IPC: 0.85987 cumulative IPC: 0.94071 (Simulation time: 0 hr 1 min 42 sec) 
Heartbeat CPU  0 instructions:   87000000 cycles:   92518201 heartbeat IPC: 0.91087 cumulative IPC: 0.94036 (Simulation time: 0 hr 1 min 43 sec) 
Heartbeat CPU  0 instructions:   88000000 cycles:   93613525 heartbeat IPC: 0.91297 cumulative IPC: 0.94004 (Simulation time: 0 hr 1 min 44 sec) 
Heartbeat CPU  0 instructions:   89000001 cycles:   94755890 heartbeat IPC: 0.87538 cumulative IPC: 0.93926 (Simulation time: 0 hr 1 min 45 sec) 
Heartbeat CPU  0 instructions:   90000000 cycles:   95890389 heartbeat IPC: 0.88145 cumulative IPC: 0.93857 (Simulation time: 0 hr 1 min 47 sec) 
Heartbeat CPU  0 instructions:   91000000 cycles:   97055744 heartbeat IPC: 0.85811 cumulative IPC: 0.93761 (Simulation time: 0 hr 1 min 48 sec) 
Heartbeat CPU  0 instructions:   92000000 cycles:   98091064 heartbeat IPC: 0.96588 cumulative IPC: 0.93790 (Simulation time: 0 hr 1 min 49 sec) 
Heartbeat CPU  0 instructions:   93000003 cycles:   99055247 heartbeat IPC: 1.03715 cumulative IPC: 0.93887 (Simulation time: 0 hr 1 min 50 sec) 
Heartbeat CPU  0 instructions:   94000003 cycles:  100184263 heartbeat IPC: 0.88573 cumulative IPC: 0.93827 (Simulation time: 0 hr 1 min 51 sec) 
Heartbeat CPU  0 instructions:   95000000 cycles:  101238168 heartbeat IPC: 0.94885 cumulative IPC: 0.93838 (Simulation time: 0 hr 1 min 52 sec) 
Heartbeat CPU  0 instructions:   96000000 cycles:  102328249 heartbeat IPC: 0.91736 cumulative IPC: 0.93816 (Simulation time: 0 hr 1 min 54 sec) 
Heartbeat CPU  0 instructions:   97000000 cycles:  103446078 heartbeat IPC: 0.89459 cumulative IPC: 0.93769 (Simulation time: 0 hr 1 min 55 sec) 
Heartbeat CPU  0 instructions:   98000001 cycles:  104438549 heartbeat IPC: 1.00759 cumulative IPC: 0.93835 (Simulation time: 0 hr 1 min 56 sec) 
Heartbeat CPU  0 instructions:   99000000 cycles:  105466780 heartbeat IPC: 0.97254 cumulative IPC: 0.93868 (Simulation time: 0 hr 1 min 57 sec) 
Heartbeat CPU  0 instructions:  100000000 cycles:  106523895 heartbeat IPC: 0.94597 cumulative IPC: 0.93876 (Simulation time: 0 hr 1 min 59 sec) 

Warmup complete CPU  0 instructions:  100000001 cycles:  106523897 (Simulation time: 0 hr 1 min 59 sec) 

Heartbeat CPU  0 instructions:  101000000 cycles:  109370746 heartbeat IPC: 0.35127 cumulative IPC: 0.35127 (Simulation time: 0 hr 2 min 0 sec) 
Heartbeat CPU  0 instructions:  102000001 cycles:  112093694 heartbeat IPC: 0.36725 cumulative IPC: 0.35908 (Simulation time: 0 hr 2 min 2 sec) 
Heartbeat CPU  0 instructions:  103000003 cycles:  114772823 heartbeat IPC: 0.37326 cumulative IPC: 0.36368 (Simulation time: 0 hr 2 min 4 sec) 
Heartbeat CPU  0 instructions:  104000000 cycles:  117371785 heartbeat IPC: 0.38477 cumulative IPC: 0.36874 (Simulation time: 0 hr 2 min 6 sec) 
Heartbeat CPU  0 instructions:  105000000 cycles:  120305280 heartbeat IPC: 0.34089 cumulative IPC: 0.36281 (Simulation time: 0 hr 2 min 8 sec) 
Heartbeat CPU  0 instructions:  106000000 cycles:  123047736 heartbeat IPC: 0.36464 cumulative IPC: 0.36311 (Simulation time: 0 hr 2 min 10 sec) 
Heartbeat CPU  0 instructions:  107000001 cycles:  125705665 heartbeat IPC: 0.37623 cumulative IPC: 0.36493 (Simulation time: 0 hr 2 min 12 sec) 
Heartbeat CPU  0 instructions:  108000000 cycles:  128526474 heartbeat IPC: 0.35451 cumulative IPC: 0.36359 (Simulation time: 0 hr 2 min 14 sec) 
Heartbeat CPU  0 instructions:  109000002 cycles:  131246964 heartbeat IPC: 0.36758 cumulative IPC: 0.36403 (Simulation time: 0 hr 2 min 16 sec) 
Heartbeat CPU  0 instructions:  110000002 cycles:  133993977 heartbeat IPC: 0.36403 cumulative IPC: 0.36403 (Simulation time: 0 hr 2 min 18 sec) 
Heartbeat CPU  0 instructions:  111000000 cycles:  136713163 heartbeat IPC: 0.36776 cumulative IPC: 0.36437 (Simulation time: 0 hr 2 min 20 sec) 
Heartbeat CPU  0 instructions:  112000000 cycles:  139493506 heartbeat IPC: 0.35967 cumulative IPC: 0.36397 (Simulation time: 0 hr 2 min 21 sec) 
Heartbeat CPU  0 instructions:  113000000 cycles:  142113974 heartbeat IPC: 0.38161 cumulative IPC: 0.36527 (Simulation time: 0 hr 2 min 23 sec) 
Heartbeat CPU  0 instructions:  114000000 cycles:  144967001 heartbeat IPC: 0.35050 cumulative IPC: 0.36417 (Simulation time: 0 hr 2 min 25 sec) 
Heartbeat CPU  0 instructions:  115000003 cycles:  147742931 heartbeat IPC: 0.36024 cumulative IPC: 0.36391 (Simulation time: 0 hr 2 min 27 sec) 
Heartbeat CPU  0 instructions:  116000000 cycles:  150503344 heartbeat IPC: 0.36226 cumulative IPC: 0.36381 (Simulation time: 0 hr 2 min 29 sec) 
Heartbeat CPU  0 instructions:  117000001 cycles:  153186974 heartbeat IPC: 0.37263 cumulative IPC: 0.36431 (Simulation time: 0 hr 2 min 31 sec) 
Heartbeat CPU  0 instructions:  118000000 cycles:  155874365 heartbeat IPC: 0.37211 cumulative IPC: 0.36474 (Simulation time: 0 hr 2 min 33 sec) 
Heartbeat CPU  0 instructions:  119000001 cycles:  158706088 heartbeat IPC: 0.35314 cumulative IPC: 0.36411 (Simulation time: 0 hr 2 min 35 sec) 
Heartbeat CPU  0 instructions:  120000000 cycles:  161425140 heartbeat IPC: 0.36777 cumulative IPC: 0.36429 (Simulation time: 0 hr 2 min 37 sec) 
Heartbeat CPU  0 instructions:  121000000 cycles:  164199357 heartbeat IPC: 0.36046 cumulative IPC: 0.36411 (Simulation time: 0 hr 2 min 39 sec) 
Heartbeat CPU  0 instructions:  122000001 cycles:  166941761 heartbeat IPC: 0.36464 cumulative IPC: 0.36413 (Simulation time: 0 hr 2 min 41 sec) 
Heartbeat CPU  0 instructions:  123000000 cycles:  169619839 heartbeat IPC: 0.37340 cumulative IPC: 0.36452 (Simulation time: 0 hr 2 min 43 sec) 
Heartbeat CPU  0 instructions:  124000000 cycles:  172378668 heartbeat IPC: 0.36247 cumulative IPC: 0.36444 (Simulation time: 0 hr 2 min 44 sec) 
Heartbeat CPU  0 instructions:  125000001 cycles:  175195436 heartbeat IPC: 0.35502 cumulative IPC: 0.36405 (Simulation time: 0 hr 2 min 46 sec) 
Heartbeat CPU  0 instructions:  126000000 cycles:  178086854 heartbeat IPC: 0.34585 cumulative IPC: 0.36332 (Simulation time: 0 hr 2 min 48 sec) 
Heartbeat CPU  0 instructions:  127000000 cycles:  180882060 heartbeat IPC: 0.35776 cumulative IPC: 0.36311 (Simulation time: 0 hr 2 min 50 sec) 
Heartbeat CPU  0 instructions:  128000000 cycles:  183643611 heartbeat IPC: 0.36212 cumulative IPC: 0.36307 (Simulation time: 0 hr 2 min 52 sec) 
Heartbeat CPU  0 instructions:  129000001 cycles:  186553356 heartbeat IPC: 0.34367 cumulative IPC: 0.36237 (Simulation time: 0 hr 2 min 54 sec) 
Heartbeat CPU  0 instructions:  130000000 cycles:  189439456 heartbeat IPC: 0.34649 cumulative IPC: 0.36181 (Simulation time: 0 hr 2 min 56 sec) 
Heartbeat CPU  0 instructions:  131000001 cycles:  192143635 heartbeat IPC: 0.36980 cumulative IPC: 0.36207 (Simulation time: 0 hr 2 min 58 sec) 
Heartbeat CPU  0 instructions:  132000000 cycles:  194839318 heartbeat IPC: 0.37096 cumulative IPC: 0.36234 (Simulation time: 0 hr 3 min 0 sec) 
Heartbeat CPU  0 instructions:  133000000 cycles:  197547702 heartbeat IPC: 0.36922 cumulative IPC: 0.36254 (Simulation time: 0 hr 3 min 2 sec) 
Heartbeat CPU  0 instructions:  134000001 cycles:  200276570 heartbeat IPC: 0.36645 cumulative IPC: 0.36266 (Simulation time: 0 hr 3 min 4 sec) 
Heartbeat CPU  0 instructions:  135000002 cycles:  203070399 heartbeat IPC: 0.35793 cumulative IPC: 0.36252 (Simulation time: 0 hr 3 min 6 sec) 
Heartbeat CPU  0 instructions:  136000000 cycles:  205618067 heartbeat IPC: 0.39252 cumulative IPC: 0.36329 (Simulation time: 0 hr 3 min 8 sec) 
Heartbeat CPU  0 instructions:  137000002 cycles:  208354845 heartbeat IPC: 0.36539 cumulative IPC: 0.36335 (Simulation time: 0 hr 3 min 10 sec) 
Heartbeat CPU  0 instructions:  138000000 cycles:  211213491 heartbeat IPC: 0.34982 cumulative IPC: 0.36298 (Simulation time: 0 hr 3 min 11 sec) 
Heartbeat CPU  0 instructions:  139000000 cycles:  213920077 heartbeat IPC: 0.36947 cumulative IPC: 0.36314 (Simulation time: 0 hr 3 min 13 sec) 
Heartbeat CPU  0 instructions:  140000000 cycles:  216817530 heartbeat IPC: 0.34513 cumulative IPC: 0.36267 (Simulation time: 0 hr 3 min 15 sec) 
Heartbeat CPU  0 instructions:  141000000 cycles:  219333258 heartbeat IPC: 0.39750 cumulative IPC: 0.36345 (Simulation time: 0 hr 3 min 17 sec) 
Heartbeat CPU  0 instructions:  142000000 cycles:  222292219 heartbeat IPC: 0.33796 cumulative IPC: 0.36279 (Simulation time: 0 hr 3 min 19 sec) 
Heartbeat CPU  0 instructions:  143000000 cycles:  225225485 heartbeat IPC: 0.34092 cumulative IPC: 0.36225 (Simulation time: 0 hr 3 min 21 sec) 
Heartbeat CPU  0 instructions:  144000000 cycles:  228137148 heartbeat IPC: 0.34345 cumulative IPC: 0.36180 (Simulation time: 0 hr 3 min 23 sec) 
Heartbeat CPU  0 instructions:  145000003 cycles:  230944354 heartbeat IPC: 0.35623 cumulative IPC: 0.36168 (Simulation time: 0 hr 3 min 25 sec) 
Heartbeat CPU  0 instructions:  146000000 cycles:  233785937 heartbeat IPC: 0.35192 cumulative IPC: 0.36146 (Simulation time: 0 hr 3 min 27 sec) 
Heartbeat CPU  0 instructions:  147000000 cycles:  236536096 heartbeat IPC: 0.36362 cumulative IPC: 0.36150 (Simulation time: 0 hr 3 min 29 sec) 
Heartbeat CPU  0 instructions:  148000000 cycles:  239427453 heartbeat IPC: 0.34586 cumulative IPC: 0.36116 (Simulation time: 0 hr 3 min 31 sec) 
Heartbeat CPU  0 instructions:  149000000 cycles:  241793146 heartbeat IPC: 0.42271 cumulative IPC: 0.36224 (Simulation time: 0 hr 3 min 32 sec) 
Heartbeat CPU  0 instructions:  150000000 cycles:  244376592 heartbeat IPC: 0.38708 cumulative IPC: 0.36271 (Simulation time: 0 hr 3 min 34 sec) 
Heartbeat CPU  0 instructions:  151000003 cycles:  246956400 heartbeat IPC: 0.38763 cumulative IPC: 0.36316 (Simulation time: 0 hr 3 min 36 sec) 
Heartbeat CPU  0 instructions:  152000000 cycles:  249889483 heartbeat IPC: 0.34094 cumulative IPC: 0.36271 (Simulation time: 0 hr 3 min 38 sec) 
Heartbeat CPU  0 instructions:  153000000 cycles:  252734823 heartbeat IPC: 0.35145 cumulative IPC: 0.36249 (Simulation time: 0 hr 3 min 40 sec) 
Heartbeat CPU  0 instructions:  154000000 cycles:  255520298 heartbeat IPC: 0.35901 cumulative IPC: 0.36242 (Simulation time: 0 hr 3 min 42 sec) 
Heartbeat CPU  0 instructions:  155000002 cycles:  258299307 heartbeat IPC: 0.35984 cumulative IPC: 0.36238 (Simulation time: 0 hr 3 min 44 sec) 
Heartbeat CPU  0 instructions:  156000000 cycles:  261057832 heartbeat IPC: 0.36251 cumulative IPC: 0.36238 (Simulation time: 0 hr 3 min 46 sec) 
Heartbeat CPU  0 instructions:  157000000 cycles:  263845804 heartbeat IPC: 0.35868 cumulative IPC: 0.36231 (Simulation time: 0 hr 3 min 48 sec) 
Heartbeat CPU  0 instructions:  158000002 cycles:  265827926 heartbeat IPC: 0.50451 cumulative IPC: 0.36408 (Simulation time: 0 hr 3 min 49 sec) 
Heartbeat CPU  0 instructions:  159000001 cycles:  268215009 heartbeat IPC: 0.41892 cumulative IPC: 0.36489 (Simulation time: 0 hr 3 min 51 sec) 
Heartbeat CPU  0 instructions:  160000000 cycles:  271088046 heartbeat IPC: 0.34806 cumulative IPC: 0.36460 (Simulation time: 0 hr 3 min 53 sec) 
Heartbeat CPU  0 instructions:  161000002 cycles:  273822660 heartbeat IPC: 0.36568 cumulative IPC: 0.36462 (Simulation time: 0 hr 3 min 55 sec) 
Heartbeat CPU  0 instructions:  162000000 cycles:  276733986 heartbeat IPC: 0.34349 cumulative IPC: 0.36426 (Simulation time: 0 hr 3 min 57 sec) 
Heartbeat CPU  0 instructions:  163000001 cycles:  279475721 heartbeat IPC: 0.36473 cumulative IPC: 0.36426 (Simulation time: 0 hr 3 min 59 sec) 
Heartbeat CPU  0 instructions:  164000000 cycles:  282254950 heartbeat IPC: 0.35981 cumulative IPC: 0.36419 (Simulation time: 0 hr 4 min 1 sec) 
Heartbeat CPU  0 instructions:  165000001 cycles:  285038937 heartbeat IPC: 0.35920 cumulative IPC: 0.36411 (Simulation time: 0 hr 4 min 2 sec) 
Heartbeat CPU  0 instructions:  166000001 cycles:  287820366 heartbeat IPC: 0.35953 cumulative IPC: 0.36404 (Simulation time: 0 hr 4 min 4 sec) 
Heartbeat CPU  0 instructions:  167000003 cycles:  290667319 heartbeat IPC: 0.35125 cumulative IPC: 0.36385 (Simulation time: 0 hr 4 min 6 sec) 
Heartbeat CPU  0 instructions:  168000000 cycles:  293432828 heartbeat IPC: 0.36160 cumulative IPC: 0.36381 (Simulation time: 0 hr 4 min 8 sec) 
Heartbeat CPU  0 instructions:  169000003 cycles:  296195015 heartbeat IPC: 0.36203 cumulative IPC: 0.36379 (Simulation time: 0 hr 4 min 10 sec) 
Heartbeat CPU  0 instructions:  170000001 cycles:  298958277 heartbeat IPC: 0.36189 cumulative IPC: 0.36376 (Simulation time: 0 hr 4 min 12 sec) 
Heartbeat CPU  0 instructions:  171000001 cycles:  301035456 heartbeat IPC: 0.48142 cumulative IPC: 0.36502 (Simulation time: 0 hr 4 min 13 sec) 
Heartbeat CPU  0 instructions:  172000000 cycles:  303613589 heartbeat IPC: 0.38788 cumulative IPC: 0.36532 (Simulation time: 0 hr 4 min 15 sec) 
Heartbeat CPU  0 instructions:  173000000 cycles:  306370232 heartbeat IPC: 0.36276 cumulative IPC: 0.36528 (Simulation time: 0 hr 4 min 17 sec) 
Heartbeat CPU  0 instructions:  174000000 cycles:  308864325 heartbeat IPC: 0.40095 cumulative IPC: 0.36572 (Simulation time: 0 hr 4 min 19 sec) 
Heartbeat CPU  0 instructions:  175000000 cycles:  311413252 heartbeat IPC: 0.39232 cumulative IPC: 0.36605 (Simulation time: 0 hr 4 min 21 sec) 
Heartbeat CPU  0 instructions:  176000000 cycles:  314151266 heartbeat IPC: 0.36523 cumulative IPC: 0.36604 (Simulation time: 0 hr 4 min 23 sec) 
Heartbeat CPU  0 instructions:  177000000 cycles:  316938284 heartbeat IPC: 0.35881 cumulative IPC: 0.36594 (Simulation time: 0 hr 4 min 25 sec) 
Heartbeat CPU  0 instructions:  178000003 cycles:  319600276 heartbeat IPC: 0.37566 cumulative IPC: 0.36607 (Simulation time: 0 hr 4 min 27 sec) 
Heartbeat CPU  0 instructions:  179000002 cycles:  322309576 heartbeat IPC: 0.36910 cumulative IPC: 0.36610 (Simulation time: 0 hr 4 min 29 sec) 
Heartbeat CPU  0 instructions:  180000000 cycles:  324937447 heartbeat IPC: 0.38054 cumulative IPC: 0.36628 (Simulation time: 0 hr 4 min 30 sec) 
Heartbeat CPU  0 instructions:  181000001 cycles:  327681009 heartbeat IPC: 0.36449 cumulative IPC: 0.36626 (Simulation time: 0 hr 4 min 32 sec) 
Heartbeat CPU  0 instructions:  182000000 cycles:  330605115 heartbeat IPC: 0.34198 cumulative IPC: 0.36594 (Simulation time: 0 hr 4 min 34 sec) 
Heartbeat CPU  0 instructions:  183000000 cycles:  333351370 heartbeat IPC: 0.36413 cumulative IPC: 0.36592 (Simulation time: 0 hr 4 min 36 sec) 
Heartbeat CPU  0 instructions:  184000000 cycles:  336090277 heartbeat IPC: 0.36511 cumulative IPC: 0.36591 (Simulation time: 0 hr 4 min 38 sec) 
Heartbeat CPU  0 instructions:  185000000 cycles:  338806678 heartbeat IPC: 0.36813 cumulative IPC: 0.36593 (Simulation time: 0 hr 4 min 40 sec) 
Heartbeat CPU  0 instructions:  186000003 cycles:  341613302 heartbeat IPC: 0.35630 cumulative IPC: 0.36582 (Simulation time: 0 hr 4 min 42 sec) 
Heartbeat CPU  0 instructions:  187000001 cycles:  344427644 heartbeat IPC: 0.35532 cumulative IPC: 0.36569 (Simulation time: 0 hr 4 min 44 sec) 
Heartbeat CPU  0 instructions:  188000000 cycles:  347183615 heartbeat IPC: 0.36285 cumulative IPC: 0.36566 (Simulation time: 0 hr 4 min 46 sec) 
Heartbeat CPU  0 instructions:  189000001 cycles:  349946771 heartbeat IPC: 0.36191 cumulative IPC: 0.36562 (Simulation time: 0 hr 4 min 48 sec) 
Heartbeat CPU  0 instructions:  190000000 cycles:  352771739 heartbeat IPC: 0.35399 cumulative IPC: 0.36549 (Simulation time: 0 hr 4 min 49 sec) 
Heartbeat CPU  0 instructions:  191000001 cycles:  355494423 heartbeat IPC: 0.36729 cumulative IPC: 0.36551 (Simulation time: 0 hr 4 min 51 sec) 
Heartbeat CPU  0 instructions:  192000000 cycles:  358291875 heartbeat IPC: 0.35747 cumulative IPC: 0.36542 (Simulation time: 0 hr 4 min 53 sec) 
Heartbeat CPU  0 instructions:  193000002 cycles:  360907020 heartbeat IPC: 0.38239 cumulative IPC: 0.36559 (Simulation time: 0 hr 4 min 55 sec) 
Heartbeat CPU  0 instructions:  194000001 cycles:  362862303 heartbeat IPC: 0.51143 cumulative IPC: 0.36670 (Simulation time: 0 hr 4 min 57 sec) 
Heartbeat CPU  0 instructions:  195000000 cycles:  365385422 heartbeat IPC: 0.39633 cumulative IPC: 0.36699 (Simulation time: 0 hr 4 min 58 sec) 
Heartbeat CPU  0 instructions:  196000000 cycles:  368389164 heartbeat IPC: 0.33292 cumulative IPC: 0.36660 (Simulation time: 0 hr 5 min 0 sec) 
Heartbeat CPU  0 instructions:  197000000 cycles:  371136319 heartbeat IPC: 0.36401 cumulative IPC: 0.36657 (Simulation time: 0 hr 5 min 2 sec) 
Heartbeat CPU  0 instructions:  198000000 cycles:  373955725 heartbeat IPC: 0.35468 cumulative IPC: 0.36645 (Simulation time: 0 hr 5 min 4 sec) 
Heartbeat CPU  0 instructions:  199000000 cycles:  376604552 heartbeat IPC: 0.37753 cumulative IPC: 0.36656 (Simulation time: 0 hr 5 min 6 sec) 
Heartbeat CPU  0 instructions:  200000000 cycles:  379164624 heartbeat IPC: 0.39061 cumulative IPC: 0.36678 (Simulation time: 0 hr 5 min 8 sec) 
Heartbeat CPU  0 instructions:  201000001 cycles:  381923990 heartbeat IPC: 0.36240 cumulative IPC: 0.36674 (Simulation time: 0 hr 5 min 10 sec) 
Heartbeat CPU  0 instructions:  202000002 cycles:  384617550 heartbeat IPC: 0.37126 cumulative IPC: 0.36678 (Simulation time: 0 hr 5 min 12 sec) 
Heartbeat CPU  0 instructions:  203000001 cycles:  387400190 heartbeat IPC: 0.35937 cumulative IPC: 0.36671 (Simulation time: 0 hr 5 min 14 sec) 
Heartbeat CPU  0 instructions:  204000000 cycles:  390200679 heartbeat IPC: 0.35708 cumulative IPC: 0.36661 (Simulation time: 0 hr 5 min 16 sec) 
Heartbeat CPU  0 instructions:  205000002 cycles:  392941911 heartbeat IPC: 0.36480 cumulative IPC: 0.36660 (Simulation time: 0 hr 5 min 17 sec) 
Heartbeat CPU  0 instructions:  206000002 cycles:  395696501 heartbeat IPC: 0.36303 cumulative IPC: 0.36656 (Simulation time: 0 hr 5 min 19 sec) 
Heartbeat CPU  0 instructions:  207000001 cycles:  398403262 heartbeat IPC: 0.36944 cumulative IPC: 0.36659 (Simulation time: 0 hr 5 min 21 sec) 
Heartbeat CPU  0 instructions:  208000000 cycles:  401210185 heartbeat IPC: 0.35626 cumulative IPC: 0.36649 (Simulation time: 0 hr 5 min 23 sec) 
Heartbeat CPU  0 instructions:  209000001 cycles:  403828639 heartbeat IPC: 0.38191 cumulative IPC: 0.36663 (Simulation time: 0 hr 5 min 25 sec) 
Heartbeat CPU  0 instructions:  210000000 cycles:  406068206 heartbeat IPC: 0.44651 cumulative IPC: 0.36722 (Simulation time: 0 hr 5 min 27 sec) 
Heartbeat CPU  0 instructions:  211000000 cycles:  408438966 heartbeat IPC: 0.42181 cumulative IPC: 0.36765 (Simulation time: 0 hr 5 min 28 sec) 
Heartbeat CPU  0 instructions:  212000000 cycles:  411288712 heartbeat IPC: 0.35091 cumulative IPC: 0.36750 (Simulation time: 0 hr 5 min 30 sec) 
Heartbeat CPU  0 instructions:  213000000 cycles:  414058310 heartbeat IPC: 0.36106 cumulative IPC: 0.36744 (Simulation time: 0 hr 5 min 32 sec) 
Heartbeat CPU  0 instructions:  214000000 cycles:  416965456 heartbeat IPC: 0.34398 cumulative IPC: 0.36722 (Simulation time: 0 hr 5 min 34 sec) 
Heartbeat CPU  0 instructions:  215000002 cycles:  419769766 heartbeat IPC: 0.35659 cumulative IPC: 0.36712 (Simulation time: 0 hr 5 min 36 sec) 
Heartbeat CPU  0 instructions:  216000000 cycles:  422583640 heartbeat IPC: 0.35538 cumulative IPC: 0.36702 (Simulation time: 0 hr 5 min 38 sec) 
Heartbeat CPU  0 instructions:  217000000 cycles:  425308397 heartbeat IPC: 0.36701 cumulative IPC: 0.36702 (Simulation time: 0 hr 5 min 40 sec) 
Heartbeat CPU  0 instructions:  218000003 cycles:  428092730 heartbeat IPC: 0.35915 cumulative IPC: 0.36695 (Simulation time: 0 hr 5 min 42 sec) 
Heartbeat CPU  0 instructions:  219000000 cycles:  430876256 heartbeat IPC: 0.35926 cumulative IPC: 0.36688 (Simulation time: 0 hr 5 min 44 sec) 
Heartbeat CPU  0 instructions:  220000000 cycles:  433611946 heartbeat IPC: 0.36554 cumulative IPC: 0.36687 (Simulation time: 0 hr 5 min 46 sec) 
Heartbeat CPU  0 instructions:  221000001 cycles:  436416664 heartbeat IPC: 0.35654 cumulative IPC: 0.36679 (Simulation time: 0 hr 5 min 48 sec) 
Heartbeat CPU  0 instructions:  222000001 cycles:  439206415 heartbeat IPC: 0.35845 cumulative IPC: 0.36672 (Simulation time: 0 hr 5 min 49 sec) 
Heartbeat CPU  0 instructions:  223000002 cycles:  442028065 heartbeat IPC: 0.35440 cumulative IPC: 0.36661 (Simulation time: 0 hr 5 min 51 sec) 
Heartbeat CPU  0 instructions:  224000000 cycles:  444835492 heartbeat IPC: 0.35620 cumulative IPC: 0.36653 (Simulation time: 0 hr 5 min 53 sec) 
Heartbeat CPU  0 instructions:  225000000 cycles:  447628114 heartbeat IPC: 0.35809 cumulative IPC: 0.36646 (Simulation time: 0 hr 5 min 55 sec) 
Heartbeat CPU  0 instructions:  226000001 cycles:  450475243 heartbeat IPC: 0.35123 cumulative IPC: 0.36633 (Simulation time: 0 hr 5 min 57 sec) 
Heartbeat CPU  0 instructions:  227000000 cycles:  453218450 heartbeat IPC: 0.36454 cumulative IPC: 0.36632 (Simulation time: 0 hr 5 min 59 sec) 
Heartbeat CPU  0 instructions:  228000000 cycles:  455982171 heartbeat IPC: 0.36183 cumulative IPC: 0.36628 (Simulation time: 0 hr 6 min 1 sec) 
Heartbeat CPU  0 instructions:  229000000 cycles:  458343443 heartbeat IPC: 0.42350 cumulative IPC: 0.36667 (Simulation time: 0 hr 6 min 2 sec) 
Heartbeat CPU  0 instructions:  230000000 cycles:  460459731 heartbeat IPC: 0.47253 cumulative IPC: 0.36730 (Simulation time: 0 hr 6 min 4 sec) 
Heartbeat CPU  0 instructions:  231000001 cycles:  463346773 heartbeat IPC: 0.34638 cumulative IPC: 0.36713 (Simulation time: 0 hr 6 min 6 sec) 
Heartbeat CPU  0 instructions:  232000000 cycles:  465982462 heartbeat IPC: 0.37941 cumulative IPC: 0.36722 (Simulation time: 0 hr 6 min 8 sec) 
Heartbeat CPU  0 instructions:  233000002 cycles:  468564807 heartbeat IPC: 0.38725 cumulative IPC: 0.36736 (Simulation time: 0 hr 6 min 10 sec) 
Heartbeat CPU  0 instructions:  234000002 cycles:  471296804 heartbeat IPC: 0.36603 cumulative IPC: 0.36735 (Simulation time: 0 hr 6 min 12 sec) 
Heartbeat CPU  0 instructions:  235000002 cycles:  474046579 heartbeat IPC: 0.36367 cumulative IPC: 0.36732 (Simulation time: 0 hr 6 min 14 sec) 
Heartbeat CPU  0 instructions:  236000000 cycles:  476698973 heartbeat IPC: 0.37702 cumulative IPC: 0.36739 (Simulation time: 0 hr 6 min 16 sec) 
Heartbeat CPU  0 instructions:  237000001 cycles:  479384578 heartbeat IPC: 0.37236 cumulative IPC: 0.36743 (Simulation time: 0 hr 6 min 18 sec) 
Heartbeat CPU  0 instructions:  238000002 cycles:  482201967 heartbeat IPC: 0.35494 cumulative IPC: 0.36734 (Simulation time: 0 hr 6 min 19 sec) 
Heartbeat CPU  0 instructions:  239000000 cycles:  484851359 heartbeat IPC: 0.37744 cumulative IPC: 0.36741 (Simulation time: 0 hr 6 min 21 sec) 
Heartbeat CPU  0 instructions:  240000000 cycles:  487642666 heartbeat IPC: 0.35826 cumulative IPC: 0.36734 (Simulation time: 0 hr 6 min 23 sec) 
Heartbeat CPU  0 instructions:  241000001 cycles:  490484936 heartbeat IPC: 0.35183 cumulative IPC: 0.36722 (Simulation time: 0 hr 6 min 25 sec) 
Heartbeat CPU  0 instructions:  242000000 cycles:  493229456 heartbeat IPC: 0.36436 cumulative IPC: 0.36720 (Simulation time: 0 hr 6 min 27 sec) 
Heartbeat CPU  0 instructions:  243000002 cycles:  496078782 heartbeat IPC: 0.35096 cumulative IPC: 0.36709 (Simulation time: 0 hr 6 min 29 sec) 
Heartbeat CPU  0 instructions:  244000000 cycles:  498869746 heartbeat IPC: 0.35830 cumulative IPC: 0.36702 (Simulation time: 0 hr 6 min 31 sec) 
Heartbeat CPU  0 instructions:  245000001 cycles:  501557855 heartbeat IPC: 0.37201 cumulative IPC: 0.36706 (Simulation time: 0 hr 6 min 33 sec) 
Heartbeat CPU  0 instructions:  246000000 cycles:  504080294 heartbeat IPC: 0.39644 cumulative IPC: 0.36724 (Simulation time: 0 hr 6 min 35 sec) 
Heartbeat CPU  0 instructions:  247000001 cycles:  506921008 heartbeat IPC: 0.35202 cumulative IPC: 0.36714 (Simulation time: 0 hr 6 min 37 sec) 
Heartbeat CPU  0 instructions:  248000000 cycles:  509503892 heartbeat IPC: 0.38716 cumulative IPC: 0.36726 (Simulation time: 0 hr 6 min 39 sec) 
Heartbeat CPU  0 instructions:  249000000 cycles:  512238392 heartbeat IPC: 0.36570 cumulative IPC: 0.36725 (Simulation time: 0 hr 6 min 41 sec) 
Heartbeat CPU  0 instructions:  250000000 cycles:  514944030 heartbeat IPC: 0.36960 cumulative IPC: 0.36727 (Simulation time: 0 hr 6 min 42 sec) 
Heartbeat CPU  0 instructions:  251000000 cycles:  517320838 heartbeat IPC: 0.42073 cumulative IPC: 0.36758 (Simulation time: 0 hr 6 min 44 sec) 
Heartbeat CPU  0 instructions:  252000000 cycles:  519688204 heartbeat IPC: 0.42241 cumulative IPC: 0.36789 (Simulation time: 0 hr 6 min 46 sec) 
Heartbeat CPU  0 instructions:  253000001 cycles:  522224894 heartbeat IPC: 0.39421 cumulative IPC: 0.36805 (Simulation time: 0 hr 6 min 48 sec) 
Heartbeat CPU  0 instructions:  254000000 cycles:  524984411 heartbeat IPC: 0.36238 cumulative IPC: 0.36802 (Simulation time: 0 hr 6 min 50 sec) 
Heartbeat CPU  0 instructions:  255000001 cycles:  527386619 heartbeat IPC: 0.41628 cumulative IPC: 0.36829 (Simulation time: 0 hr 6 min 52 sec) 
Heartbeat CPU  0 instructions:  256000000 cycles:  530267633 heartbeat IPC: 0.34710 cumulative IPC: 0.36815 (Simulation time: 0 hr 6 min 53 sec) 
Heartbeat CPU  0 instructions:  257000002 cycles:  533127791 heartbeat IPC: 0.34963 cumulative IPC: 0.36802 (Simulation time: 0 hr 6 min 55 sec) 
Heartbeat CPU  0 instructions:  258000001 cycles:  535885155 heartbeat IPC: 0.36266 cumulative IPC: 0.36799 (Simulation time: 0 hr 6 min 57 sec) 
Heartbeat CPU  0 instructions:  259000000 cycles:  538594649 heartbeat IPC: 0.36907 cumulative IPC: 0.36800 (Simulation time: 0 hr 6 min 59 sec) 
Heartbeat CPU  0 instructions:  260000000 cycles:  541330374 heartbeat IPC: 0.36553 cumulative IPC: 0.36798 (Simulation time: 0 hr 7 min 1 sec) 
Heartbeat CPU  0 instructions:  261000001 cycles:  544190618 heartbeat IPC: 0.34962 cumulative IPC: 0.36786 (Simulation time: 0 hr 7 min 3 sec) 
Heartbeat CPU  0 instructions:  262000003 cycles:  546862852 heartbeat IPC: 0.37422 cumulative IPC: 0.36790 (Simulation time: 0 hr 7 min 5 sec) 
Heartbeat CPU  0 instructions:  263000002 cycles:  549680493 heartbeat IPC: 0.35491 cumulative IPC: 0.36782 (Simulation time: 0 hr 7 min 7 sec) 
Heartbeat CPU  0 instructions:  264000000 cycles:  552350466 heartbeat IPC: 0.37453 cumulative IPC: 0.36786 (Simulation time: 0 hr 7 min 9 sec) 
Heartbeat CPU  0 instructions:  265000000 cycles:  555149177 heartbeat IPC: 0.35731 cumulative IPC: 0.36779 (Simulation time: 0 hr 7 min 11 sec) 
Heartbeat CPU  0 instructions:  266000001 cycles:  558002759 heartbeat IPC: 0.35044 cumulative IPC: 0.36768 (Simulation time: 0 hr 7 min 12 sec) 
Heartbeat CPU  0 instructions:  267000003 cycles:  560765309 heartbeat IPC: 0.36199 cumulative IPC: 0.36765 (Simulation time: 0 hr 7 min 14 sec) 
Heartbeat CPU  0 instructions:  268000000 cycles:  563580934 heartbeat IPC: 0.35516 cumulative IPC: 0.36757 (Simulation time: 0 hr 7 min 16 sec) 
Heartbeat CPU  0 instructions:  269000001 cycles:  566380852 heartbeat IPC: 0.35715 cumulative IPC: 0.36751 (Simulation time: 0 hr 7 min 18 sec) 
Heartbeat CPU  0 instructions:  270000000 cycles:  569259842 heartbeat IPC: 0.34734 cumulative IPC: 0.36738 (Simulation time: 0 hr 7 min 20 sec) 
Heartbeat CPU  0 instructions:  271000000 cycles:  572013789 heartbeat IPC: 0.36312 cumulative IPC: 0.36735 (Simulation time: 0 hr 7 min 22 sec) 
Heartbeat CPU  0 instructions:  272000000 cycles:  574767591 heartbeat IPC: 0.36313 cumulative IPC: 0.36733 (Simulation time: 0 hr 7 min 24 sec) 
Heartbeat CPU  0 instructions:  273000001 cycles:  577187858 heartbeat IPC: 0.41318 cumulative IPC: 0.36757 (Simulation time: 0 hr 7 min 26 sec) 
Heartbeat CPU  0 instructions:  274000000 cycles:  579478921 heartbeat IPC: 0.43648 cumulative IPC: 0.36790 (Simulation time: 0 hr 7 min 27 sec) 
Heartbeat CPU  0 instructions:  275000001 cycles:  582022567 heartbeat IPC: 0.39314 cumulative IPC: 0.36803 (Simulation time: 0 hr 7 min 29 sec) 
Heartbeat CPU  0 instructions:  276000000 cycles:  584738111 heartbeat IPC: 0.36825 cumulative IPC: 0.36804 (Simulation time: 0 hr 7 min 31 sec) 
Heartbeat CPU  0 instructions:  277000000 cycles:  587599220 heartbeat IPC: 0.34951 cumulative IPC: 0.36793 (Simulation time: 0 hr 7 min 33 sec) 
Heartbeat CPU  0 instructions:  278000001 cycles:  590488635 heartbeat IPC: 0.34609 cumulative IPC: 0.36780 (Simulation time: 0 hr 7 min 35 sec) 
Heartbeat CPU  0 instructions:  279000002 cycles:  593283719 heartbeat IPC: 0.35777 cumulative IPC: 0.36774 (Simulation time: 0 hr 7 min 37 sec) 
Heartbeat CPU  0 instructions:  280000000 cycles:  596053306 heartbeat IPC: 0.36106 cumulative IPC: 0.36770 (Simulation time: 0 hr 7 min 39 sec) 
Heartbeat CPU  0 instructions:  281000000 cycles:  598842475 heartbeat IPC: 0.35853 cumulative IPC: 0.36765 (Simulation time: 0 hr 7 min 41 sec) 
Heartbeat CPU  0 instructions:  282000003 cycles:  601640063 heartbeat IPC: 0.35745 cumulative IPC: 0.36759 (Simulation time: 0 hr 7 min 43 sec) 
Heartbeat CPU  0 instructions:  283000003 cycles:  604389447 heartbeat IPC: 0.36372 cumulative IPC: 0.36757 (Simulation time: 0 hr 7 min 44 sec) 
Heartbeat CPU  0 instructions:  284000000 cycles:  607056786 heartbeat IPC: 0.37490 cumulative IPC: 0.36761 (Simulation time: 0 hr 7 min 46 sec) 
Heartbeat CPU  0 instructions:  285000001 cycles:  609878573 heartbeat IPC: 0.35439 cumulative IPC: 0.36753 (Simulation time: 0 hr 7 min 48 sec) 
Heartbeat CPU  0 instructions:  286000003 cycles:  612600357 heartbeat IPC: 0.36741 cumulative IPC: 0.36753 (Simulation time: 0 hr 7 min 50 sec) 
Heartbeat CPU  0 instructions:  287000000 cycles:  615373721 heartbeat IPC: 0.36057 cumulative IPC: 0.36750 (Simulation time: 0 hr 7 min 52 sec) 
Heartbeat CPU  0 instructions:  288000000 cycles:  618196039 heartbeat IPC: 0.35432 cumulative IPC: 0.36742 (Simulation time: 0 hr 7 min 54 sec) 
Heartbeat CPU  0 instructions:  289000000 cycles:  620963116 heartbeat IPC: 0.36139 cumulative IPC: 0.36739 (Simulation time: 0 hr 7 min 56 sec) 
Heartbeat CPU  0 instructions:  290000000 cycles:  623792372 heartbeat IPC: 0.35345 cumulative IPC: 0.36731 (Simulation time: 0 hr 7 min 58 sec) 
Heartbeat CPU  0 instructions:  291000000 cycles:  626557547 heartbeat IPC: 0.36164 cumulative IPC: 0.36728 (Simulation time: 0 hr 8 min 0 sec) 
Heartbeat CPU  0 instructions:  292000000 cycles:  629285536 heartbeat IPC: 0.36657 cumulative IPC: 0.36728 (Simulation time: 0 hr 8 min 1 sec) 
Heartbeat CPU  0 instructions:  293000002 cycles:  632139337 heartbeat IPC: 0.35041 cumulative IPC: 0.36719 (Simulation time: 0 hr 8 min 3 sec) 
Heartbeat CPU  0 instructions:  294000003 cycles:  634860384 heartbeat IPC: 0.36751 cumulative IPC: 0.36719 (Simulation time: 0 hr 8 min 5 sec) 
Heartbeat CPU  0 instructions:  295000003 cycles:  637665038 heartbeat IPC: 0.35655 cumulative IPC: 0.36713 (Simulation time: 0 hr 8 min 7 sec) 
Heartbeat CPU  0 instructions:  296000000 cycles:  640333699 heartbeat IPC: 0.37472 cumulative IPC: 0.36717 (Simulation time: 0 hr 8 min 9 sec) 
Heartbeat CPU  0 instructions:  297000001 cycles:  642483987 heartbeat IPC: 0.46505 cumulative IPC: 0.36756 (Simulation time: 0 hr 8 min 11 sec) 
Heartbeat CPU  0 instructions:  298000000 cycles:  644972973 heartbeat IPC: 0.40177 cumulative IPC: 0.36772 (Simulation time: 0 hr 8 min 12 sec) 
Heartbeat CPU  0 instructions:  299000000 cycles:  647672764 heartbeat IPC: 0.37040 cumulative IPC: 0.36774 (Simulation time: 0 hr 8 min 14 sec) 
Heartbeat CPU  0 instructions:  300000000 cycles:  650257571 heartbeat IPC: 0.38688 cumulative IPC: 0.36783 (Simulation time: 0 hr 8 min 16 sec) 
Heartbeat CPU  0 instructions:  301000001 cycles:  652796571 heartbeat IPC: 0.39386 cumulative IPC: 0.36795 (Simulation time: 0 hr 8 min 18 sec) 
Heartbeat CPU  0 instructions:  302000000 cycles:  655437934 heartbeat IPC: 0.37859 cumulative IPC: 0.36800 (Simulation time: 0 hr 8 min 20 sec) 
Heartbeat CPU  0 instructions:  303000003 cycles:  658225988 heartbeat IPC: 0.35867 cumulative IPC: 0.36795 (Simulation time: 0 hr 8 min 22 sec) 
Heartbeat CPU  0 instructions:  304000000 cycles:  660949066 heartbeat IPC: 0.36723 cumulative IPC: 0.36795 (Simulation time: 0 hr 8 min 24 sec) 
Heartbeat CPU  0 instructions:  305000000 cycles:  663718576 heartbeat IPC: 0.36107 cumulative IPC: 0.36791 (Simulation time: 0 hr 8 min 26 sec) 
Heartbeat CPU  0 instructions:  306000002 cycles:  666606938 heartbeat IPC: 0.34622 cumulative IPC: 0.36780 (Simulation time: 0 hr 8 min 28 sec) 
Heartbeat CPU  0 instructions:  307000000 cycles:  669410484 heartbeat IPC: 0.35669 cumulative IPC: 0.36775 (Simulation time: 0 hr 8 min 30 sec) 
Heartbeat CPU  0 instructions:  308000000 cycles:  672156522 heartbeat IPC: 0.36416 cumulative IPC: 0.36773 (Simulation time: 0 hr 8 min 32 sec) 
Heartbeat CPU  0 instructions:  309000000 cycles:  674899965 heartbeat IPC: 0.36451 cumulative IPC: 0.36771 (Simulation time: 0 hr 8 min 34 sec) 
Heartbeat CPU  0 instructions:  310000000 cycles:  677670976 heartbeat IPC: 0.36088 cumulative IPC: 0.36768 (Simulation time: 0 hr 8 min 35 sec) 
Heartbeat CPU  0 instructions:  311000003 cycles:  680442165 heartbeat IPC: 0.36086 cumulative IPC: 0.36765 (Simulation time: 0 hr 8 min 37 sec) 
Heartbeat CPU  0 instructions:  312000000 cycles:  683117260 heartbeat IPC: 0.37382 cumulative IPC: 0.36768 (Simulation time: 0 hr 8 min 39 sec) 
Heartbeat CPU  0 instructions:  313000000 cycles:  685909571 heartbeat IPC: 0.35813 cumulative IPC: 0.36763 (Simulation time: 0 hr 8 min 41 sec) 
Heartbeat CPU  0 instructions:  314000002 cycles:  688664250 heartbeat IPC: 0.36302 cumulative IPC: 0.36761 (Simulation time: 0 hr 8 min 43 sec) 
Heartbeat CPU  0 instructions:  315000002 cycles:  691381261 heartbeat IPC: 0.36805 cumulative IPC: 0.36761 (Simulation time: 0 hr 8 min 45 sec) 
Heartbeat CPU  0 instructions:  316000000 cycles:  694178301 heartbeat IPC: 0.35752 cumulative IPC: 0.36756 (Simulation time: 0 hr 8 min 47 sec) 
Heartbeat CPU  0 instructions:  317000001 cycles:  696959780 heartbeat IPC: 0.35952 cumulative IPC: 0.36753 (Simulation time: 0 hr 8 min 49 sec) 
Heartbeat CPU  0 instructions:  318000000 cycles:  699745072 heartbeat IPC: 0.35903 cumulative IPC: 0.36749 (Simulation time: 0 hr 8 min 51 sec) 
Heartbeat CPU  0 instructions:  319000000 cycles:  702517726 heartbeat IPC: 0.36067 cumulative IPC: 0.36745 (Simulation time: 0 hr 8 min 52 sec) 
Heartbeat CPU  0 instructions:  320000000 cycles:  705222296 heartbeat IPC: 0.36974 cumulative IPC: 0.36746 (Simulation time: 0 hr 8 min 54 sec) 
Heartbeat CPU  0 instructions:  321000003 cycles:  707862024 heartbeat IPC: 0.37883 cumulative IPC: 0.36751 (Simulation time: 0 hr 8 min 56 sec) 
Heartbeat CPU  0 instructions:  322000002 cycles:  710387956 heartbeat IPC: 0.39589 cumulative IPC: 0.36763 (Simulation time: 0 hr 8 min 58 sec) 
Heartbeat CPU  0 instructions:  323000000 cycles:  712514787 heartbeat IPC: 0.47018 cumulative IPC: 0.36799 (Simulation time: 0 hr 9 min 0 sec) 
Heartbeat CPU  0 instructions:  324000000 cycles:  714975496 heartbeat IPC: 0.40639 cumulative IPC: 0.36815 (Simulation time: 0 hr 9 min 2 sec) 
Heartbeat CPU  0 instructions:  325000000 cycles:  717727569 heartbeat IPC: 0.36336 cumulative IPC: 0.36813 (Simulation time: 0 hr 9 min 3 sec) 
Heartbeat CPU  0 instructions:  326000000 cycles:  720435368 heartbeat IPC: 0.36930 cumulative IPC: 0.36813 (Simulation time: 0 hr 9 min 5 sec) 
Heartbeat CPU  0 instructions:  327000002 cycles:  723189768 heartbeat IPC: 0.36306 cumulative IPC: 0.36811 (Simulation time: 0 hr 9 min 7 sec) 
Heartbeat CPU  0 instructions:  328000000 cycles:  725858465 heartbeat IPC: 0.37471 cumulative IPC: 0.36814 (Simulation time: 0 hr 9 min 9 sec) 
Heartbeat CPU  0 instructions:  329000001 cycles:  728607808 heartbeat IPC: 0.36372 cumulative IPC: 0.36812 (Simulation time: 0 hr 9 min 11 sec) 
Heartbeat CPU  0 instructions:  330000000 cycles:  731477942 heartbeat IPC: 0.34842 cumulative IPC: 0.36803 (Simulation time: 0 hr 9 min 13 sec) 
Heartbeat CPU  0 instructions:  331000000 cycles:  734356659 heartbeat IPC: 0.34738 cumulative IPC: 0.36793 (Simulation time: 0 hr 9 min 15 sec) 
Heartbeat CPU  0 instructions:  332000000 cycles:  737080634 heartbeat IPC: 0.36711 cumulative IPC: 0.36793 (Simulation time: 0 hr 9 min 17 sec) 
Heartbeat CPU  0 instructions:  333000000 cycles:  739781600 heartbeat IPC: 0.37024 cumulative IPC: 0.36794 (Simulation time: 0 hr 9 min 19 sec) 
Heartbeat CPU  0 instructions:  334000001 cycles:  742560681 heartbeat IPC: 0.35983 cumulative IPC: 0.36790 (Simulation time: 0 hr 9 min 21 sec) 
Heartbeat CPU  0 instructions:  335000003 cycles:  745354313 heartbeat IPC: 0.35796 cumulative IPC: 0.36786 (Simulation time: 0 hr 9 min 22 sec) 
Heartbeat CPU  0 instructions:  336000000 cycles:  748074140 heartbeat IPC: 0.36767 cumulative IPC: 0.36786 (Simulation time: 0 hr 9 min 24 sec) 
Heartbeat CPU  0 instructions:  337000000 cycles:  750850472 heartbeat IPC: 0.36019 cumulative IPC: 0.36783 (Simulation time: 0 hr 9 min 26 sec) 
Heartbeat CPU  0 instructions:  338000000 cycles:  753629926 heartbeat IPC: 0.35978 cumulative IPC: 0.36779 (Simulation time: 0 hr 9 min 28 sec) 
Heartbeat CPU  0 instructions:  339000000 cycles:  756309642 heartbeat IPC: 0.37317 cumulative IPC: 0.36781 (Simulation time: 0 hr 9 min 30 sec) 
Heartbeat CPU  0 instructions:  340000000 cycles:  759069246 heartbeat IPC: 0.36237 cumulative IPC: 0.36779 (Simulation time: 0 hr 9 min 32 sec) 
Heartbeat CPU  0 instructions:  341000002 cycles:  761934338 heartbeat IPC: 0.34903 cumulative IPC: 0.36771 (Simulation time: 0 hr 9 min 34 sec) 
Heartbeat CPU  0 instructions:  342000000 cycles:  764691375 heartbeat IPC: 0.36271 cumulative IPC: 0.36769 (Simulation time: 0 hr 9 min 36 sec) 
Heartbeat CPU  0 instructions:  343000000 cycles:  767521050 heartbeat IPC: 0.35340 cumulative IPC: 0.36763 (Simulation time: 0 hr 9 min 38 sec) 
Heartbeat CPU  0 instructions:  344000000 cycles:  770265589 heartbeat IPC: 0.36436 cumulative IPC: 0.36761 (Simulation time: 0 hr 9 min 40 sec) 
Heartbeat CPU  0 instructions:  345000000 cycles:  772854271 heartbeat IPC: 0.38630 cumulative IPC: 0.36769 (Simulation time: 0 hr 9 min 42 sec) 
Heartbeat CPU  0 instructions:  346000001 cycles:  775509380 heartbeat IPC: 0.37663 cumulative IPC: 0.36772 (Simulation time: 0 hr 9 min 43 sec) 
Heartbeat CPU  0 instructions:  347000000 cycles:  777580458 heartbeat IPC: 0.48284 cumulative IPC: 0.36808 (Simulation time: 0 hr 9 min 45 sec) 
Heartbeat CPU  0 instructions:  348000000 cycles:  779900743 heartbeat IPC: 0.43098 cumulative IPC: 0.36829 (Simulation time: 0 hr 9 min 47 sec) 
Heartbeat CPU  0 instructions:  349000003 cycles:  782743584 heartbeat IPC: 0.35176 cumulative IPC: 0.36822 (Simulation time: 0 hr 9 min 49 sec) 
Heartbeat CPU  0 instructions:  350000002 cycles:  785519706 heartbeat IPC: 0.36021 cumulative IPC: 0.36819 (Simulation time: 0 hr 9 min 51 sec) 
Heartbeat CPU  0 instructions:  351000001 cycles:  788220601 heartbeat IPC: 0.37025 cumulative IPC: 0.36820 (Simulation time: 0 hr 9 min 53 sec) 
Heartbeat CPU  0 instructions:  352000000 cycles:  791012270 heartbeat IPC: 0.35821 cumulative IPC: 0.36816 (Simulation time: 0 hr 9 min 55 sec) 
Heartbeat CPU  0 instructions:  353000000 cycles:  793891215 heartbeat IPC: 0.34735 cumulative IPC: 0.36807 (Simulation time: 0 hr 9 min 56 sec) 
Heartbeat CPU  0 instructions:  354000001 cycles:  796691844 heartbeat IPC: 0.35706 cumulative IPC: 0.36803 (Simulation time: 0 hr 9 min 58 sec) 
Heartbeat CPU  0 instructions:  355000002 cycles:  799473660 heartbeat IPC: 0.35948 cumulative IPC: 0.36799 (Simulation time: 0 hr 10 min 0 sec) 
Heartbeat CPU  0 instructions:  356000000 cycles:  802139115 heartbeat IPC: 0.37517 cumulative IPC: 0.36802 (Simulation time: 0 hr 10 min 2 sec) 
Heartbeat CPU  0 instructions:  357000000 cycles:  804923868 heartbeat IPC: 0.35910 cumulative IPC: 0.36798 (Simulation time: 0 hr 10 min 4 sec) 
Heartbeat CPU  0 instructions:  358000000 cycles:  807623887 heartbeat IPC: 0.37037 cumulative IPC: 0.36799 (Simulation time: 0 hr 10 min 6 sec) 
Heartbeat CPU  0 instructions:  359000001 cycles:  810368228 heartbeat IPC: 0.36439 cumulative IPC: 0.36798 (Simulation time: 0 hr 10 min 8 sec) 
Heartbeat CPU  0 instructions:  360000000 cycles:  813159988 heartbeat IPC: 0.35820 cumulative IPC: 0.36794 (Simulation time: 0 hr 10 min 10 sec) 
Heartbeat CPU  0 instructions:  361000002 cycles:  815873099 heartbeat IPC: 0.36858 cumulative IPC: 0.36794 (Simulation time: 0 hr 10 min 12 sec) 
Heartbeat CPU  0 instructions:  362000000 cycles:  818695878 heartbeat IPC: 0.35426 cumulative IPC: 0.36789 (Simulation time: 0 hr 10 min 14 sec) 
Heartbeat CPU  0 instructions:  363000000 cycles:  821512205 heartbeat IPC: 0.35507 cumulative IPC: 0.36784 (Simulation time: 0 hr 10 min 15 sec) 
Heartbeat CPU  0 instructions:  364000000 cycles:  824283786 heartbeat IPC: 0.36080 cumulative IPC: 0.36781 (Simulation time: 0 hr 10 min 17 sec) 
Heartbeat CPU  0 instructions:  365000001 cycles:  827063114 heartbeat IPC: 0.35980 cumulative IPC: 0.36778 (Simulation time: 0 hr 10 min 19 sec) 
Heartbeat CPU  0 instructions:  366000000 cycles:  829838576 heartbeat IPC: 0.36030 cumulative IPC: 0.36775 (Simulation time: 0 hr 10 min 21 sec) 
Heartbeat CPU  0 instructions:  367000000 cycles:  832436559 heartbeat IPC: 0.38491 cumulative IPC: 0.36781 (Simulation time: 0 hr 10 min 23 sec) 
Heartbeat CPU  0 instructions:  368000000 cycles:  835047108 heartbeat IPC: 0.38306 cumulative IPC: 0.36787 (Simulation time: 0 hr 10 min 25 sec) 
Heartbeat CPU  0 instructions:  369000000 cycles:  837131100 heartbeat IPC: 0.47985 cumulative IPC: 0.36819 (Simulation time: 0 hr 10 min 27 sec) 
Heartbeat CPU  0 instructions:  370000000 cycles:  839393690 heartbeat IPC: 0.44197 cumulative IPC: 0.36841 (Simulation time: 0 hr 10 min 28 sec) 
Heartbeat CPU  0 instructions:  371000000 cycles:  842142645 heartbeat IPC: 0.36377 cumulative IPC: 0.36840 (Simulation time: 0 hr 10 min 30 sec) 
Heartbeat CPU  0 instructions:  372000000 cycles:  845091988 heartbeat IPC: 0.33906 cumulative IPC: 0.36828 (Simulation time: 0 hr 10 min 32 sec) 
Heartbeat CPU  0 instructions:  373000000 cycles:  847875433 heartbeat IPC: 0.35927 cumulative IPC: 0.36825 (Simulation time: 0 hr 10 min 34 sec) 
Heartbeat CPU  0 instructions:  374000003 cycles:  850658962 heartbeat IPC: 0.35926 cumulative IPC: 0.36821 (Simulation time: 0 hr 10 min 36 sec) 
Heartbeat CPU  0 instructions:  375000000 cycles:  853358669 heartbeat IPC: 0.37041 cumulative IPC: 0.36822 (Simulation time: 0 hr 10 min 38 sec) 
Heartbeat CPU  0 instructions:  376000000 cycles:  856169350 heartbeat IPC: 0.35579 cumulative IPC: 0.36817 (Simulation time: 0 hr 10 min 40 sec) 
Heartbeat CPU  0 instructions:  377000003 cycles:  858877092 heartbeat IPC: 0.36931 cumulative IPC: 0.36818 (Simulation time: 0 hr 10 min 42 sec) 
Heartbeat CPU  0 instructions:  378000000 cycles:  861596287 heartbeat IPC: 0.36775 cumulative IPC: 0.36818 (Simulation time: 0 hr 10 min 44 sec) 
Heartbeat CPU  0 instructions:  379000002 cycles:  864436966 heartbeat IPC: 0.35203 cumulative IPC: 0.36812 (Simulation time: 0 hr 10 min 45 sec) 
Heartbeat CPU  0 instructions:  380000000 cycles:  867177984 heartbeat IPC: 0.36483 cumulative IPC: 0.36810 (Simulation time: 0 hr 10 min 47 sec) 
Heartbeat CPU  0 instructions:  381000000 cycles:  870023859 heartbeat IPC: 0.35139 cumulative IPC: 0.36804 (Simulation time: 0 hr 10 min 49 sec) 
Heartbeat CPU  0 instructions:  382000001 cycles:  872785848 heartbeat IPC: 0.36206 cumulative IPC: 0.36802 (Simulation time: 0 hr 10 min 51 sec) 
Heartbeat CPU  0 instructions:  383000002 cycles:  875480290 heartbeat IPC: 0.37113 cumulative IPC: 0.36803 (Simulation time: 0 hr 10 min 53 sec) 
Heartbeat CPU  0 instructions:  384000000 cycles:  877587242 heartbeat IPC: 0.47462 cumulative IPC: 0.36832 (Simulation time: 0 hr 10 min 55 sec) 
Heartbeat CPU  0 instructions:  385000000 cycles:  879744836 heartbeat IPC: 0.46348 cumulative IPC: 0.36859 (Simulation time: 0 hr 10 min 56 sec) 
Heartbeat CPU  0 instructions:  386000002 cycles:  882635099 heartbeat IPC: 0.34599 cumulative IPC: 0.36850 (Simulation time: 0 hr 10 min 58 sec) 
Heartbeat CPU  0 instructions:  387000001 cycles:  885315925 heartbeat IPC: 0.37302 cumulative IPC: 0.36852 (Simulation time: 0 hr 11 min 0 sec) 
Heartbeat CPU  0 instructions:  388000000 cycles:  888092839 heartbeat IPC: 0.36011 cumulative IPC: 0.36849 (Simulation time: 0 hr 11 min 2 sec) 
Heartbeat CPU  0 instructions:  389000000 cycles:  890821835 heartbeat IPC: 0.36644 cumulative IPC: 0.36848 (Simulation time: 0 hr 11 min 4 sec) 
Heartbeat CPU  0 instructions:  390000000 cycles:  893550378 heartbeat IPC: 0.36650 cumulative IPC: 0.36848 (Simulation time: 0 hr 11 min 6 sec) 
Heartbeat CPU  0 instructions:  391000001 cycles:  896300985 heartbeat IPC: 0.36356 cumulative IPC: 0.36846 (Simulation time: 0 hr 11 min 8 sec) 
Heartbeat CPU  0 instructions:  392000000 cycles:  899063663 heartbeat IPC: 0.36197 cumulative IPC: 0.36844 (Simulation time: 0 hr 11 min 10 sec) 
Heartbeat CPU  0 instructions:  393000000 cycles:  901809724 heartbeat IPC: 0.36416 cumulative IPC: 0.36842 (Simulation time: 0 hr 11 min 11 sec) 
Heartbeat CPU  0 instructions:  394000002 cycles:  904463358 heartbeat IPC: 0.37684 cumulative IPC: 0.36845 (Simulation time: 0 hr 11 min 13 sec) 
Heartbeat CPU  0 instructions:  395000002 cycles:  907301174 heartbeat IPC: 0.35238 cumulative IPC: 0.36839 (Simulation time: 0 hr 11 min 15 sec) 
Heartbeat CPU  0 instructions:  396000000 cycles:  910014411 heartbeat IPC: 0.36856 cumulative IPC: 0.36839 (Simulation time: 0 hr 11 min 17 sec) 
Heartbeat CPU  0 instructions:  397000000 cycles:  912767387 heartbeat IPC: 0.36324 cumulative IPC: 0.36838 (Simulation time: 0 hr 11 min 19 sec) 
Heartbeat CPU  0 instructions:  398000001 cycles:  915602613 heartbeat IPC: 0.35271 cumulative IPC: 0.36832 (Simulation time: 0 hr 11 min 21 sec) 
Heartbeat CPU  0 instructions:  399000002 cycles:  918408820 heartbeat IPC: 0.35635 cumulative IPC: 0.36828 (Simulation time: 0 hr 11 min 23 sec) 
Heartbeat CPU  0 instructions:  400000000 cycles:  921238979 heartbeat IPC: 0.35334 cumulative IPC: 0.36823 (Simulation time: 0 hr 11 min 25 sec) 
Heartbeat CPU  0 instructions:  401000000 cycles:  924001593 heartbeat IPC: 0.36198 cumulative IPC: 0.36821 (Simulation time: 0 hr 11 min 27 sec) 
Heartbeat CPU  0 instructions:  402000000 cycles:  926748145 heartbeat IPC: 0.36409 cumulative IPC: 0.36819 (Simulation time: 0 hr 11 min 28 sec) 
Heartbeat CPU  0 instructions:  403000001 cycles:  929322694 heartbeat IPC: 0.38842 cumulative IPC: 0.36826 (Simulation time: 0 hr 11 min 31 sec) 
Heartbeat CPU  0 instructions:  404000000 cycles:  931874994 heartbeat IPC: 0.39180 cumulative IPC: 0.36833 (Simulation time: 0 hr 11 min 32 sec) 
Heartbeat CPU  0 instructions:  405000000 cycles:  934090979 heartbeat IPC: 0.45127 cumulative IPC: 0.36855 (Simulation time: 0 hr 11 min 34 sec) 
Heartbeat CPU  0 instructions:  406000002 cycles:  936572571 heartbeat IPC: 0.40297 cumulative IPC: 0.36865 (Simulation time: 0 hr 11 min 36 sec) 
Heartbeat CPU  0 instructions:  407000000 cycles:  939290188 heartbeat IPC: 0.36797 cumulative IPC: 0.36865 (Simulation time: 0 hr 11 min 38 sec) 
Heartbeat CPU  0 instructions:  408000000 cycles:  942074684 heartbeat IPC: 0.35913 cumulative IPC: 0.36862 (Simulation time: 0 hr 11 min 40 sec) 
Heartbeat CPU  0 instructions:  409000002 cycles:  945000970 heartbeat IPC: 0.34173 cumulative IPC: 0.36853 (Simulation time: 0 hr 11 min 42 sec) 
Heartbeat CPU  0 instructions:  410000001 cycles:  947765047 heartbeat IPC: 0.36178 cumulative IPC: 0.36850 (Simulation time: 0 hr 11 min 44 sec) 
Heartbeat CPU  0 instructions:  411000000 cycles:  950559273 heartbeat IPC: 0.35788 cumulative IPC: 0.36847 (Simulation time: 0 hr 11 min 46 sec) 
Heartbeat CPU  0 instructions:  412000000 cycles:  953212507 heartbeat IPC: 0.37690 cumulative IPC: 0.36849 (Simulation time: 0 hr 11 min 47 sec) 
Heartbeat CPU  0 instructions:  413000000 cycles:  956038224 heartbeat IPC: 0.35389 cumulative IPC: 0.36845 (Simulation time: 0 hr 11 min 49 sec) 
Heartbeat CPU  0 instructions:  414000000 cycles:  958759230 heartbeat IPC: 0.36751 cumulative IPC: 0.36844 (Simulation time: 0 hr 11 min 51 sec) 
Heartbeat CPU  0 instructions:  415000000 cycles:  961509573 heartbeat IPC: 0.36359 cumulative IPC: 0.36843 (Simulation time: 0 hr 11 min 53 sec) 
Heartbeat CPU  0 instructions:  416000000 cycles:  964319237 heartbeat IPC: 0.35591 cumulative IPC: 0.36839 (Simulation time: 0 hr 11 min 55 sec) 
Heartbeat CPU  0 instructions:  417000003 cycles:  967010553 heartbeat IPC: 0.37157 cumulative IPC: 0.36840 (Simulation time: 0 hr 11 min 57 sec) 
Heartbeat CPU  0 instructions:  418000000 cycles:  969833845 heartbeat IPC: 0.35420 cumulative IPC: 0.36835 (Simulation time: 0 hr 11 min 59 sec) 
Heartbeat CPU  0 instructions:  419000000 cycles:  972681413 heartbeat IPC: 0.35118 cumulative IPC: 0.36829 (Simulation time: 0 hr 12 min 1 sec) 
Heartbeat CPU  0 instructions:  420000000 cycles:  975454573 heartbeat IPC: 0.36060 cumulative IPC: 0.36827 (Simulation time: 0 hr 12 min 3 sec) 
Heartbeat CPU  0 instructions:  421000000 cycles:  978277976 heartbeat IPC: 0.35418 cumulative IPC: 0.36822 (Simulation time: 0 hr 12 min 5 sec) 
Heartbeat CPU  0 instructions:  422000001 cycles:  981013177 heartbeat IPC: 0.36560 cumulative IPC: 0.36821 (Simulation time: 0 hr 12 min 6 sec) 
Heartbeat CPU  0 instructions:  423000000 cycles:  983532684 heartbeat IPC: 0.39690 cumulative IPC: 0.36830 (Simulation time: 0 hr 12 min 8 sec) 
Heartbeat CPU  0 instructions:  424000000 cycles:  985504528 heartbeat IPC: 0.50714 cumulative IPC: 0.36861 (Simulation time: 0 hr 12 min 10 sec) 
Heartbeat CPU  0 instructions:  425000001 cycles:  988010444 heartbeat IPC: 0.39906 cumulative IPC: 0.36870 (Simulation time: 0 hr 12 min 12 sec) 
Heartbeat CPU  0 instructions:  426000001 cycles:  990783931 heartbeat IPC: 0.36056 cumulative IPC: 0.36867 (Simulation time: 0 hr 12 min 14 sec) 
Heartbeat CPU  0 instructions:  427000000 cycles:  993603637 heartbeat IPC: 0.35465 cumulative IPC: 0.36863 (Simulation time: 0 hr 12 min 16 sec) 
Heartbeat CPU  0 instructions:  428000000 cycles:  996500565 heartbeat IPC: 0.34519 cumulative IPC: 0.36855 (Simulation time: 0 hr 12 min 18 sec) 
Heartbeat CPU  0 instructions:  429000001 cycles:  999328605 heartbeat IPC: 0.35360 cumulative IPC: 0.36850 (Simulation time: 0 hr 12 min 19 sec) 
Heartbeat CPU  0 instructions:  430000001 cycles: 1002068057 heartbeat IPC: 0.36504 cumulative IPC: 0.36849 (Simulation time: 0 hr 12 min 21 sec) 
Heartbeat CPU  0 instructions:  431000000 cycles: 1004795743 heartbeat IPC: 0.36661 cumulative IPC: 0.36849 (Simulation time: 0 hr 12 min 23 sec) 
Heartbeat CPU  0 instructions:  432000000 cycles: 1007556827 heartbeat IPC: 0.36218 cumulative IPC: 0.36847 (Simulation time: 0 hr 12 min 25 sec) 
Heartbeat CPU  0 instructions:  433000001 cycles: 1010365822 heartbeat IPC: 0.35600 cumulative IPC: 0.36843 (Simulation time: 0 hr 12 min 27 sec) 
Heartbeat CPU  0 instructions:  434000001 cycles: 1013069188 heartbeat IPC: 0.36991 cumulative IPC: 0.36843 (Simulation time: 0 hr 12 min 29 sec) 
Heartbeat CPU  0 instructions:  435000000 cycles: 1015827373 heartbeat IPC: 0.36256 cumulative IPC: 0.36841 (Simulation time: 0 hr 12 min 31 sec) 
Heartbeat CPU  0 instructions:  436000000 cycles: 1018645921 heartbeat IPC: 0.35479 cumulative IPC: 0.36837 (Simulation time: 0 hr 12 min 33 sec) 
Heartbeat CPU  0 instructions:  437000000 cycles: 1021374129 heartbeat IPC: 0.36654 cumulative IPC: 0.36837 (Simulation time: 0 hr 12 min 35 sec) 
Heartbeat CPU  0 instructions:  438000000 cycles: 1024212255 heartbeat IPC: 0.35235 cumulative IPC: 0.36832 (Simulation time: 0 hr 12 min 37 sec) 
Heartbeat CPU  0 instructions:  439000003 cycles: 1027010844 heartbeat IPC: 0.35732 cumulative IPC: 0.36828 (Simulation time: 0 hr 12 min 39 sec) 
Heartbeat CPU  0 instructions:  440000000 cycles: 1029795570 heartbeat IPC: 0.35910 cumulative IPC: 0.36826 (Simulation time: 0 hr 12 min 40 sec) 
Heartbeat CPU  0 instructions:  441000001 cycles: 1032574312 heartbeat IPC: 0.35988 cumulative IPC: 0.36823 (Simulation time: 0 hr 12 min 42 sec) 
Heartbeat CPU  0 instructions:  442000000 cycles: 1035322348 heartbeat IPC: 0.36390 cumulative IPC: 0.36822 (Simulation time: 0 hr 12 min 44 sec) 
Heartbeat CPU  0 instructions:  443000002 cycles: 1037935443 heartbeat IPC: 0.38269 cumulative IPC: 0.36826 (Simulation time: 0 hr 12 min 46 sec) 
Heartbeat CPU  0 instructions:  444000000 cycles: 1040603539 heartbeat IPC: 0.37480 cumulative IPC: 0.36828 (Simulation time: 0 hr 12 min 48 sec) 
Heartbeat CPU  0 instructions:  445000000 cycles: 1043462986 heartbeat IPC: 0.34972 cumulative IPC: 0.36822 (Simulation time: 0 hr 12 min 50 sec) 
Heartbeat CPU  0 instructions:  446000003 cycles: 1046261385 heartbeat IPC: 0.35735 cumulative IPC: 0.36819 (Simulation time: 0 hr 12 min 52 sec) 
Heartbeat CPU  0 instructions:  447000002 cycles: 1049071881 heartbeat IPC: 0.35581 cumulative IPC: 0.36815 (Simulation time: 0 hr 12 min 54 sec) 
Heartbeat CPU  0 instructions:  448000000 cycles: 1051497890 heartbeat IPC: 0.41220 cumulative IPC: 0.36826 (Simulation time: 0 hr 12 min 55 sec) 
Heartbeat CPU  0 instructions:  449000000 cycles: 1053670379 heartbeat IPC: 0.46030 cumulative IPC: 0.36848 (Simulation time: 0 hr 12 min 57 sec) 
Heartbeat CPU  0 instructions:  450000000 cycles: 1056483071 heartbeat IPC: 0.35553 cumulative IPC: 0.36844 (Simulation time: 0 hr 12 min 59 sec) 
Heartbeat CPU  0 instructions:  451000000 cycles: 1059275130 heartbeat IPC: 0.35816 cumulative IPC: 0.36841 (Simulation time: 0 hr 13 min 1 sec) 
Heartbeat CPU  0 instructions:  452000000 cycles: 1062035760 heartbeat IPC: 0.36224 cumulative IPC: 0.36839 (Simulation time: 0 hr 13 min 3 sec) 
Heartbeat CPU  0 instructions:  453000000 cycles: 1064805469 heartbeat IPC: 0.36105 cumulative IPC: 0.36837 (Simulation time: 0 hr 13 min 5 sec) 
Heartbeat CPU  0 instructions:  454000001 cycles: 1067614885 heartbeat IPC: 0.35595 cumulative IPC: 0.36833 (Simulation time: 0 hr 13 min 7 sec) 
Heartbeat CPU  0 instructions:  455000000 cycles: 1070388609 heartbeat IPC: 0.36053 cumulative IPC: 0.36831 (Simulation time: 0 hr 13 min 9 sec) 
Heartbeat CPU  0 instructions:  456000000 cycles: 1073080920 heartbeat IPC: 0.37143 cumulative IPC: 0.36832 (Simulation time: 0 hr 13 min 10 sec) 
Heartbeat CPU  0 instructions:  457000003 cycles: 1075861472 heartbeat IPC: 0.35964 cumulative IPC: 0.36829 (Simulation time: 0 hr 13 min 12 sec) 
Heartbeat CPU  0 instructions:  458000003 cycles: 1078615364 heartbeat IPC: 0.36312 cumulative IPC: 0.36828 (Simulation time: 0 hr 13 min 14 sec) 
Heartbeat CPU  0 instructions:  459000001 cycles: 1081451913 heartbeat IPC: 0.35254 cumulative IPC: 0.36823 (Simulation time: 0 hr 13 min 16 sec) 
Heartbeat CPU  0 instructions:  460000000 cycles: 1084200277 heartbeat IPC: 0.36385 cumulative IPC: 0.36822 (Simulation time: 0 hr 13 min 18 sec) 
Heartbeat CPU  0 instructions:  461000002 cycles: 1086926313 heartbeat IPC: 0.36683 cumulative IPC: 0.36822 (Simulation time: 0 hr 13 min 20 sec) 
Heartbeat CPU  0 instructions:  462000003 cycles: 1089567663 heartbeat IPC: 0.37859 cumulative IPC: 0.36824 (Simulation time: 0 hr 13 min 22 sec) 
Heartbeat CPU  0 instructions:  463000001 cycles: 1091559292 heartbeat IPC: 0.50210 cumulative IPC: 0.36851 (Simulation time: 0 hr 13 min 23 sec) 
Heartbeat CPU  0 instructions:  464000000 cycles: 1094651634 heartbeat IPC: 0.32338 cumulative IPC: 0.36837 (Simulation time: 0 hr 13 min 25 sec) 
Heartbeat CPU  0 instructions:  465000001 cycles: 1097652182 heartbeat IPC: 0.33327 cumulative IPC: 0.36827 (Simulation time: 0 hr 13 min 27 sec) 
Heartbeat CPU  0 instructions:  466000000 cycles: 1100190422 heartbeat IPC: 0.39397 cumulative IPC: 0.36833 (Simulation time: 0 hr 13 min 29 sec) 
Heartbeat CPU  0 instructions:  467000000 cycles: 1102895278 heartbeat IPC: 0.36971 cumulative IPC: 0.36834 (Simulation time: 0 hr 13 min 31 sec) 
Heartbeat CPU  0 instructions:  468000000 cycles: 1105675160 heartbeat IPC: 0.35973 cumulative IPC: 0.36831 (Simulation time: 0 hr 13 min 33 sec) 
Heartbeat CPU  0 instructions:  469000001 cycles: 1108416594 heartbeat IPC: 0.36477 cumulative IPC: 0.36830 (Simulation time: 0 hr 13 min 35 sec) 
Heartbeat CPU  0 instructions:  470000001 cycles: 1111158278 heartbeat IPC: 0.36474 cumulative IPC: 0.36829 (Simulation time: 0 hr 13 min 37 sec) 
Heartbeat CPU  0 instructions:  471000000 cycles: 1113796776 heartbeat IPC: 0.37900 cumulative IPC: 0.36832 (Simulation time: 0 hr 13 min 38 sec) 
Heartbeat CPU  0 instructions:  472000000 cycles: 1116603862 heartbeat IPC: 0.35624 cumulative IPC: 0.36829 (Simulation time: 0 hr 13 min 40 sec) 
Heartbeat CPU  0 instructions:  473000002 cycles: 1119338891 heartbeat IPC: 0.36563 cumulative IPC: 0.36828 (Simulation time: 0 hr 13 min 42 sec) 
Heartbeat CPU  0 instructions:  474000001 cycles: 1122106888 heartbeat IPC: 0.36127 cumulative IPC: 0.36826 (Simulation time: 0 hr 13 min 44 sec) 
Heartbeat CPU  0 instructions:  475000002 cycles: 1124902505 heartbeat IPC: 0.35770 cumulative IPC: 0.36823 (Simulation time: 0 hr 13 min 46 sec) 
Heartbeat CPU  0 instructions:  476000000 cycles: 1127660037 heartbeat IPC: 0.36264 cumulative IPC: 0.36822 (Simulation time: 0 hr 13 min 48 sec) 
Heartbeat CPU  0 instructions:  477000001 cycles: 1130471448 heartbeat IPC: 0.35569 cumulative IPC: 0.36818 (Simulation time: 0 hr 13 min 50 sec) 
Heartbeat CPU  0 instructions:  478000001 cycles: 1133222917 heartbeat IPC: 0.36344 cumulative IPC: 0.36817 (Simulation time: 0 hr 13 min 52 sec) 
Heartbeat CPU  0 instructions:  479000002 cycles: 1135958403 heartbeat IPC: 0.36557 cumulative IPC: 0.36816 (Simulation time: 0 hr 13 min 54 sec) 
Heartbeat CPU  0 instructions:  480000000 cycles: 1138781406 heartbeat IPC: 0.35423 cumulative IPC: 0.36813 (Simulation time: 0 hr 13 min 55 sec) 
Heartbeat CPU  0 instructions:  481000000 cycles: 1141617623 heartbeat IPC: 0.35258 cumulative IPC: 0.36808 (Simulation time: 0 hr 13 min 57 sec) 
Heartbeat CPU  0 instructions:  482000000 cycles: 1143572090 heartbeat IPC: 0.51165 cumulative IPC: 0.36835 (Simulation time: 0 hr 13 min 59 sec) 
Heartbeat CPU  0 instructions:  483000003 cycles: 1146659533 heartbeat IPC: 0.32389 cumulative IPC: 0.36822 (Simulation time: 0 hr 14 min 1 sec) 
Heartbeat CPU  0 instructions:  484000000 cycles: 1149594555 heartbeat IPC: 0.34071 cumulative IPC: 0.36814 (Simulation time: 0 hr 14 min 3 sec) 
Heartbeat CPU  0 instructions:  485000001 cycles: 1152494880 heartbeat IPC: 0.34479 cumulative IPC: 0.36808 (Simulation time: 0 hr 14 min 5 sec) 
Heartbeat CPU  0 instructions:  486000000 cycles: 1155279816 heartbeat IPC: 0.35907 cumulative IPC: 0.36806 (Simulation time: 0 hr 14 min 7 sec) 
Heartbeat CPU  0 instructions:  487000002 cycles: 1157736001 heartbeat IPC: 0.40714 cumulative IPC: 0.36815 (Simulation time: 0 hr 14 min 8 sec) 
Heartbeat CPU  0 instructions:  488000000 cycles: 1160610044 heartbeat IPC: 0.34794 cumulative IPC: 0.36809 (Simulation time: 0 hr 14 min 10 sec) 
Heartbeat CPU  0 instructions:  489000001 cycles: 1163451913 heartbeat IPC: 0.35188 cumulative IPC: 0.36805 (Simulation time: 0 hr 14 min 12 sec) 
Heartbeat CPU  0 instructions:  490000001 cycles: 1166130974 heartbeat IPC: 0.37327 cumulative IPC: 0.36806 (Simulation time: 0 hr 14 min 14 sec) 
Heartbeat CPU  0 instructions:  491000001 cycles: 1168870015 heartbeat IPC: 0.36509 cumulative IPC: 0.36805 (Simulation time: 0 hr 14 min 16 sec) 
Heartbeat CPU  0 instructions:  492000000 cycles: 1171613189 heartbeat IPC: 0.36454 cumulative IPC: 0.36804 (Simulation time: 0 hr 14 min 18 sec) 
Heartbeat CPU  0 instructions:  493000000 cycles: 1174436624 heartbeat IPC: 0.35418 cumulative IPC: 0.36801 (Simulation time: 0 hr 14 min 20 sec) 
Heartbeat CPU  0 instructions:  494000000 cycles: 1177176603 heartbeat IPC: 0.36497 cumulative IPC: 0.36800 (Simulation time: 0 hr 14 min 22 sec) 
Heartbeat CPU  0 instructions:  495000000 cycles: 1180035409 heartbeat IPC: 0.34980 cumulative IPC: 0.36795 (Simulation time: 0 hr 14 min 24 sec) 
Heartbeat CPU  0 instructions:  496000000 cycles: 1182774522 heartbeat IPC: 0.36508 cumulative IPC: 0.36794 (Simulation time: 0 hr 14 min 26 sec) 
Heartbeat CPU  0 instructions:  497000000 cycles: 1185495497 heartbeat IPC: 0.36752 cumulative IPC: 0.36794 (Simulation time: 0 hr 14 min 28 sec) 
Heartbeat CPU  0 instructions:  498000001 cycles: 1187753724 heartbeat IPC: 0.44283 cumulative IPC: 0.36810 (Simulation time: 0 hr 14 min 29 sec) 
Heartbeat CPU  0 instructions:  499000001 cycles: 1190259758 heartbeat IPC: 0.39904 cumulative IPC: 0.36817 (Simulation time: 0 hr 14 min 31 sec) 
Heartbeat CPU  0 instructions:  500000000 cycles: 1192733758 heartbeat IPC: 0.40420 cumulative IPC: 0.36825 (Simulation time: 0 hr 14 min 33 sec) 
Heartbeat CPU  0 instructions:  501000001 cycles: 1195968988 heartbeat IPC: 0.30910 cumulative IPC: 0.36808 (Simulation time: 0 hr 14 min 35 sec) 
Heartbeat CPU  0 instructions:  502000003 cycles: 1198821426 heartbeat IPC: 0.35058 cumulative IPC: 0.36803 (Simulation time: 0 hr 14 min 37 sec) 
Heartbeat CPU  0 instructions:  503000000 cycles: 1201447106 heartbeat IPC: 0.38085 cumulative IPC: 0.36806 (Simulation time: 0 hr 14 min 40 sec) 
Heartbeat CPU  0 instructions:  504000000 cycles: 1202963388 heartbeat IPC: 0.65951 cumulative IPC: 0.36847 (Simulation time: 0 hr 14 min 42 sec) 
Heartbeat CPU  0 instructions:  505000003 cycles: 1210134439 heartbeat IPC: 0.13945 cumulative IPC: 0.36698 (Simulation time: 0 hr 14 min 47 sec) 
Heartbeat CPU  0 instructions:  506000003 cycles: 1217972832 heartbeat IPC: 0.12758 cumulative IPC: 0.36529 (Simulation time: 0 hr 14 min 53 sec) 
Heartbeat CPU  0 instructions:  507000003 cycles: 1226382421 heartbeat IPC: 0.11891 cumulative IPC: 0.36344 (Simulation time: 0 hr 14 min 59 sec) 
Heartbeat CPU  0 instructions:  508000000 cycles: 1240304333 heartbeat IPC: 0.07183 cumulative IPC: 0.35986 (Simulation time: 0 hr 15 min 8 sec) 
Heartbeat CPU  0 instructions:  509000003 cycles: 1257481179 heartbeat IPC: 0.05822 cumulative IPC: 0.35536 (Simulation time: 0 hr 15 min 19 sec) 
Heartbeat CPU  0 instructions:  510000003 cycles: 1275443536 heartbeat IPC: 0.05567 cumulative IPC: 0.35075 (Simulation time: 0 hr 15 min 30 sec) 
Heartbeat CPU  0 instructions:  511000001 cycles: 1295695893 heartbeat IPC: 0.04938 cumulative IPC: 0.34562 (Simulation time: 0 hr 15 min 42 sec) 
Heartbeat CPU  0 instructions:  512000000 cycles: 1322041132 heartbeat IPC: 0.03796 cumulative IPC: 0.33895 (Simulation time: 0 hr 15 min 58 sec) 
Heartbeat CPU  0 instructions:  513000003 cycles: 1348864255 heartbeat IPC: 0.03728 cumulative IPC: 0.33244 (Simulation time: 0 hr 16 min 14 sec) 
Heartbeat CPU  0 instructions:  514000002 cycles: 1362062716 heartbeat IPC: 0.07577 cumulative IPC: 0.32974 (Simulation time: 0 hr 16 min 22 sec) 
Heartbeat CPU  0 instructions:  515000002 cycles: 1371044072 heartbeat IPC: 0.11134 cumulative IPC: 0.32819 (Simulation time: 0 hr 16 min 28 sec) 
Heartbeat CPU  0 instructions:  516000000 cycles: 1379948205 heartbeat IPC: 0.11231 cumulative IPC: 0.32668 (Simulation time: 0 hr 16 min 35 sec) 
Heartbeat CPU  0 instructions:  517000002 cycles: 1388956522 heartbeat IPC: 0.11101 cumulative IPC: 0.32516 (Simulation time: 0 hr 16 min 41 sec) 
Heartbeat CPU  0 instructions:  518000002 cycles: 1406462309 heartbeat IPC: 0.05712 cumulative IPC: 0.32155 (Simulation time: 0 hr 16 min 52 sec) 
Heartbeat CPU  0 instructions:  519000002 cycles: 1424704371 heartbeat IPC: 0.05482 cumulative IPC: 0.31786 (Simulation time: 0 hr 17 min 3 sec) 
Heartbeat CPU  0 instructions:  520000000 cycles: 1442503303 heartbeat IPC: 0.05618 cumulative IPC: 0.31438 (Simulation time: 0 hr 17 min 14 sec) 
Heartbeat CPU  0 instructions:  521000000 cycles: 1466108931 heartbeat IPC: 0.04236 cumulative IPC: 0.30965 (Simulation time: 0 hr 17 min 29 sec) 
Heartbeat CPU  0 instructions:  522000002 cycles: 1493175873 heartbeat IPC: 0.03695 cumulative IPC: 0.30433 (Simulation time: 0 hr 17 min 45 sec) 
Heartbeat CPU  0 instructions:  523000000 cycles: 1515797359 heartbeat IPC: 0.04421 cumulative IPC: 0.30015 (Simulation time: 0 hr 17 min 58 sec) 
Heartbeat CPU  0 instructions:  524000000 cycles: 1519780612 heartbeat IPC: 0.25105 cumulative IPC: 0.30002 (Simulation time: 0 hr 18 min 1 sec) 
Heartbeat CPU  0 instructions:  525000002 cycles: 1522416785 heartbeat IPC: 0.37934 cumulative IPC: 0.30016 (Simulation time: 0 hr 18 min 3 sec) 
Heartbeat CPU  0 instructions:  526000000 cycles: 1524792376 heartbeat IPC: 0.42095 cumulative IPC: 0.30037 (Simulation time: 0 hr 18 min 5 sec) 
Heartbeat CPU  0 instructions:  527000001 cycles: 1527611228 heartbeat IPC: 0.35475 cumulative IPC: 0.30047 (Simulation time: 0 hr 18 min 7 sec) 
Heartbeat CPU  0 instructions:  528000000 cycles: 1529885273 heartbeat IPC: 0.43974 cumulative IPC: 0.30070 (Simulation time: 0 hr 18 min 8 sec) 
[...]
Heartbeat CPU  0 instructions:  538000001 cycles: 1554281206 heartbeat IPC: 0.39448 cumulative IPC: 0.30254 (Simulation time: 0 hr 18 min 26 sec) 
Heartbeat CPU  0 instructions:  539000000 cycles: 1556789113 heartbeat IPC: 0.39874 cumulative IPC: 0.30270 (Simulation time: 0 hr 18 min 28 sec) 
Heartbeat CPU  0 instructions:  540000000 cycles: 1559443366 heartbeat IPC: 0.37675 cumulative IPC: 0.30284 (Simulation time: 0 hr 18 min 30 sec) 
Heartbeat CPU  0 instructions:  541000001 cycles: 1561943147 heartbeat IPC: 0.40004 cumulative IPC: 0.30301 (Simulation time: 0 hr 18 min 32 sec) 
Heartbeat CPU  0 instructions:  542000002 cycles: 1564294790 heartbeat IPC: 0.42524 cumulative IPC: 0.30320 (Simulation time: 0 hr 18 min 34 sec) 
Heartbeat CPU  0 instructions:  543000003 cycles: 1566882253 heartbeat IPC: 0.38648 cumulative IPC: 0.30335 (Simulation time: 0 hr 18 min 36 sec) 
Heartbeat CPU  0 instructions:  544000000 cycles: 1569437687 heartbeat IPC: 0.39132 cumulative IPC: 0.30350 (Simulation time: 0 hr 18 min 38 sec) 
Heartbeat CPU  0 instructions:  545000000 cycles: 1571643087 heartbeat IPC: 0.45343 cumulative IPC: 0.30373 (Simulation time: 0 hr 18 min 40 sec) 
Heartbeat CPU  0 instructions:  546000000 cycles: 1573969321 heartbeat IPC: 0.42988 cumulative IPC: 0.30393 (Simulation time: 0 hr 18 min 41 sec) 
Heartbeat CPU  0 instructions:  547000000 cycles: 1576421793 heartbeat IPC: 0.40775 cumulative IPC: 0.30410 (Simulation time: 0 hr 18 min 43 sec) 
Heartbeat CPU  0 instructions:  548000000 cycles: 1579082066 heartbeat IPC: 0.37590 cumulative IPC: 0.30423 (Simulation time: 0 hr 18 min 45 sec) 
Heartbeat CPU  0 instructions:  549000000 cycles: 1581671190 heartbeat IPC: 0.38623 cumulative IPC: 0.30438 (Simulation time: 0 hr 18 min 47 sec) 
Heartbeat CPU  0 instructions:  550000001 cycles: 1584277514 heartbeat IPC: 0.38368 cumulative IPC: 0.30452 (Simulation time: 0 hr 18 min 49 sec) 
Heartbeat CPU  0 instructions:  551000001 cycles: 1586922828 heartbeat IPC: 0.37803 cumulative IPC: 0.30465 (Simulation time: 0 hr 18 min 51 sec) 
Heartbeat CPU  0 instructions:  552000000 cycles: 1589560805 heartbeat IPC: 0.37908 cumulative IPC: 0.30478 (Simulation time: 0 hr 18 min 52 sec) 
Heartbeat CPU  0 instructions:  553000002 cycles: 1592133742 heartbeat IPC: 0.38866 cumulative IPC: 0.30493 (Simulation time: 0 hr 18 min 54 sec) 
Heartbeat CPU  0 instructions:  554000000 cycles: 1594795390 heartbeat IPC: 0.37571 cumulative IPC: 0.30505 (Simulation time: 0 hr 18 min 56 sec) 
Heartbeat CPU  0 instructions:  555000000 cycles: 1597550868 heartbeat IPC: 0.36291 cumulative IPC: 0.30516 (Simulation time: 0 hr 18 min 58 sec) 
Heartbeat CPU  0 instructions:  556000000 cycles: 1600065898 heartbeat IPC: 0.39761 cumulative IPC: 0.30531 (Simulation time: 0 hr 19 min 0 sec) 
Heartbeat CPU  0 instructions:  557000000 cycles: 1602796421 heartbeat IPC: 0.36623 cumulative IPC: 0.30543 (Simulation time: 0 hr 19 min 2 sec) 
Heartbeat CPU  0 instructions:  558000000 cycles: 1605428960 heartbeat IPC: 0.37986 cumulative IPC: 0.30556 (Simulation time: 0 hr 19 min 4 sec) 
Heartbeat CPU  0 instructions:  559000000 cycles: 1608168806 heartbeat IPC: 0.36498 cumulative IPC: 0.30566 (Simulation time: 0 hr 19 min 6 sec) 
Heartbeat CPU  0 instructions:  560000000 cycles: 1610887957 heartbeat IPC: 0.36776 cumulative IPC: 0.30578 (Simulation time: 0 hr 19 min 7 sec) 
Heartbeat CPU  0 instructions:  561000001 cycles: 1613534576 heartbeat IPC: 0.37784 cumulative IPC: 0.30590 (Simulation time: 0 hr 19 min 9 sec) 
Heartbeat CPU  0 instructions:  562000000 cycles: 1616210505 heartbeat IPC: 0.37370 cumulative IPC: 0.30602 (Simulation time: 0 hr 19 min 11 sec) 
Heartbeat CPU  0 instructions:  563000001 cycles: 1618984378 heartbeat IPC: 0.36051 cumulative IPC: 0.30612 (Simulation time: 0 hr 19 min 13 sec) 
Heartbeat CPU  0 instructions:  564000000 cycles: 1621476109 heartbeat IPC: 0.40133 cumulative IPC: 0.30628 (Simulation time: 0 hr 19 min 15 sec) 
Heartbeat CPU  0 instructions:  565000002 cycles: 1624184742 heartbeat IPC: 0.36919 cumulative IPC: 0.30639 (Simulation time: 0 hr 19 min 17 sec) 
Heartbeat CPU  0 instructions:  566000000 cycles: 1626791151 heartbeat IPC: 0.38367 cumulative IPC: 0.30653 (Simulation time: 0 hr 19 min 19 sec) 
Heartbeat CPU  0 instructions:  567000003 cycles: 1629446253 heartbeat IPC: 0.37663 cumulative IPC: 0.30665 (Simulation time: 0 hr 19 min 21 sec) 
Heartbeat CPU  0 instructions:  568000000 cycles: 1632119958 heartbeat IPC: 0.37401 cumulative IPC: 0.30677 (Simulation time: 0 hr 19 min 23 sec) 
Heartbeat CPU  0 instructions:  569000002 cycles: 1634924959 heartbeat IPC: 0.35651 cumulative IPC: 0.30686 (Simulation time: 0 hr 19 min 24 sec) 
Heartbeat CPU  0 instructions:  570000001 cycles: 1637653594 heartbeat IPC: 0.36648 cumulative IPC: 0.30696 (Simulation time: 0 hr 19 min 26 sec) 
Heartbeat CPU  0 instructions:  571000001 cycles: 1640369352 heartbeat IPC: 0.36822 cumulative IPC: 0.30707 (Simulation time: 0 hr 19 min 28 sec) 
Heartbeat CPU  0 instructions:  572000000 cycles: 1643169049 heartbeat IPC: 0.35718 cumulative IPC: 0.30716 (Simulation time: 0 hr 19 min 30 sec) 
Heartbeat CPU  0 instructions:  573000000 cycles: 1645915491 heartbeat IPC: 0.36411 cumulative IPC: 0.30726 (Simulation time: 0 hr 19 min 32 sec) 
Heartbeat CPU  0 instructions:  574000000 cycles: 1648689564 heartbeat IPC: 0.36048 cumulative IPC: 0.30736 (Simulation time: 0 hr 19 min 34 sec) 
Heartbeat CPU  0 instructions:  575000002 cycles: 1651470033 heartbeat IPC: 0.35965 cumulative IPC: 0.30745 (Simulation time: 0 hr 19 min 36 sec) 
Heartbeat CPU  0 instructions:  576000000 cycles: 1654170985 heartbeat IPC: 0.37024 cumulative IPC: 0.30756 (Simulation time: 0 hr 19 min 38 sec) 
Heartbeat CPU  0 instructions:  577000002 cycles: 1656895612 heartbeat IPC: 0.36702 cumulative IPC: 0.30767 (Simulation time: 0 hr 19 min 40 sec) 
Heartbeat CPU  0 instructions:  578000001 cycles: 1659483447 heartbeat IPC: 0.38642 cumulative IPC: 0.30780 (Simulation time: 0 hr 19 min 42 sec) 
Heartbeat CPU  0 instructions:  579000002 cycles: 1662164920 heartbeat IPC: 0.37293 cumulative IPC: 0.30791 (Simulation time: 0 hr 19 min 43 sec) 
Heartbeat CPU  0 instructions:  580000000 cycles: 1664844510 heartbeat IPC: 0.37319 cumulative IPC: 0.30802 (Simulation time: 0 hr 19 min 45 sec) 
Heartbeat CPU  0 instructions:  581000003 cycles: 1667506869 heartbeat IPC: 0.37561 cumulative IPC: 0.30814 (Simulation time: 0 hr 19 min 47 sec) 
Heartbeat CPU  0 instructions:  582000001 cycles: 1670267880 heartbeat IPC: 0.36219 cumulative IPC: 0.30823 (Simulation time: 0 hr 19 min 49 sec) 
Heartbeat CPU  0 instructions:  583000000 cycles: 1672917892 heartbeat IPC: 0.37736 cumulative IPC: 0.30835 (Simulation time: 0 hr 19 min 51 sec) 
Heartbeat CPU  0 instructions:  584000000 cycles: 1675539694 heartbeat IPC: 0.38142 cumulative IPC: 0.30847 (Simulation time: 0 hr 19 min 53 sec) 
Heartbeat CPU  0 instructions:  585000002 cycles: 1678259323 heartbeat IPC: 0.36770 cumulative IPC: 0.30858 (Simulation time: 0 hr 19 min 55 sec) 
Heartbeat CPU  0 instructions:  586000000 cycles: 1680955105 heartbeat IPC: 0.37095 cumulative IPC: 0.30868 (Simulation time: 0 hr 19 min 57 sec) 
Heartbeat CPU  0 instructions:  587000000 cycles: 1683623563 heartbeat IPC: 0.37475 cumulative IPC: 0.30879 (Simulation time: 0 hr 19 min 59 sec) 
Heartbeat CPU  0 instructions:  588000000 cycles: 1686270480 heartbeat IPC: 0.37780 cumulative IPC: 0.30891 (Simulation time: 0 hr 20 min 1 sec) 
Heartbeat CPU  0 instructions:  589000002 cycles: 1688831995 heartbeat IPC: 0.39039 cumulative IPC: 0.30904 (Simulation time: 0 hr 20 min 3 sec) 
Heartbeat CPU  0 instructions:  590000000 cycles: 1691443108 heartbeat IPC: 0.38298 cumulative IPC: 0.30916 (Simulation time: 0 hr 20 min 5 sec) 
Heartbeat CPU  0 instructions:  591000000 cycles: 1693928692 heartbeat IPC: 0.40232 cumulative IPC: 0.30931 (Simulation time: 0 hr 20 min 6 sec) 
Heartbeat CPU  0 instructions:  592000000 cycles: 1696647993 heartbeat IPC: 0.36774 cumulative IPC: 0.30941 (Simulation time: 0 hr 20 min 8 sec) 
Heartbeat CPU  0 instructions:  593000001 cycles: 1699327621 heartbeat IPC: 0.37319 cumulative IPC: 0.30952 (Simulation time: 0 hr 20 min 10 sec) 
Heartbeat CPU  0 instructions:  594000000 cycles: 1701916883 heartbeat IPC: 0.38621 cumulative IPC: 0.30964 (Simulation time: 0 hr 20 min 12 sec) 
Heartbeat CPU  0 instructions:  595000002 cycles: 1704647906 heartbeat IPC: 0.36616 cumulative IPC: 0.30974 (Simulation time: 0 hr 20 min 14 sec) 
Heartbeat CPU  0 instructions:  596000000 cycles: 1707018514 heartbeat IPC: 0.42183 cumulative IPC: 0.30990 (Simulation time: 0 hr 20 min 15 sec) 
Heartbeat CPU  0 instructions:  597000000 cycles: 1709557535 heartbeat IPC: 0.39385 cumulative IPC: 0.31004 (Simulation time: 0 hr 20 min 17 sec) 
Heartbeat CPU  0 instructions:  598000000 cycles: 1712044199 heartbeat IPC: 0.40215 cumulative IPC: 0.31018 (Simulation time: 0 hr 20 min 19 sec) 
Heartbeat CPU  0 instructions:  599000001 cycles: 1714723273 heartbeat IPC: 0.37326 cumulative IPC: 0.31028 (Simulation time: 0 hr 20 min 21 sec) 
Heartbeat CPU  0 instructions:  600000000 cycles: 1717320624 heartbeat IPC: 0.38501 cumulative IPC: 0.31041 (Simulation time: 0 hr 20 min 23 sec) 
Finished CPU 0 instructions: 500000000 cycles: 1610796759 cumulative IPC: 0.31041 (Simulation time: 0 hr 20 min 23 sec) 

ChampSim completed all CPUs

[ROI Statistics]
Core_0_instructions 500000000
Core_0_cycles 1610796759
Core_0_IPC 0.31041

Core_0_branch_prediction_accuracy 85.44512
Core_0_branch_MPKI 23.17008
Core_0_average_ROB_occupancy_at_mispredict 40.39225

Core_0_L1D_total_access 158199843
Core_0_L1D_total_hit 156132411
Core_0_L1D_total_miss 2067432
Core_0_L1D_loads 90878037
Core_0_L1D_load_hit 90165407
Core_0_L1D_load_miss 712630
Core_0_L1D_RFOs 67321806
Core_0_L1D_RFO_hit 65967004
Core_0_L1D_RFO_miss 1354802
Core_0_L1D_prefetches 0
Core_0_L1D_prefetch_hit 0
Core_0_L1D_prefetch_miss 0
Core_0_L1D_writebacks 0
Core_0_L1D_writeback_hit 0
Core_0_L1D_writeback_miss 0
Core_0_L1D_prefetch_requested 0
Core_0_L1D_prefetch_dropped 0
Core_0_L1D_prefetch_issued 0
Core_0_L1D_prefetch_filled 0
Core_0_L1D_prefetch_useful 0
Core_0_L1D_prefetch_useless 0
Core_0_L1D_prefetch_late 0
Core_0_L1D_average_miss_latency 2481.73398

Core_0_L1D_rq_access 127065794
Core_0_L1D_rq_forward 0
Core_0_L1D_rq_merged 36051989
Core_0_L1D_rq_to_cache 91013370
Core_0_L1D_rq_full 0

Core_0_L1D_wq_access 71549319
Core_0_L1D_wq_forward 435
Core_0_L1D_wq_merged 408879
Core_0_L1D_wq_to_cache 71140440
Core_0_L1D_wq_full 306555880

Core_0_L1D_pq_access 0
Core_0_L1D_pq_forward 0
Core_0_L1D_pq_merged 0
Core_0_L1D_pq_to_cache 0
Core_0_L1D_pq_full 0

Core_0_L1D_acc_epochs 1671496
Core_0_L1D_acc_level_0 1671496
Core_0_L1D_acc_level_1 0
Core_0_L1D_acc_level_2 0
Core_0_L1D_acc_level_3 0
Core_0_L1D_acc_level_4 0
Core_0_L1D_acc_level_5 0
Core_0_L1D_acc_level_6 0
Core_0_L1D_acc_level_7 0
Core_0_L1D_acc_level_8 0
Core_0_L1D_acc_level_9 0

Core_0_L1I_total_access 97994448
Core_0_L1I_total_hit 96374896
Core_0_L1I_total_miss 1619552
Core_0_L1I_loads 97994448
Core_0_L1I_load_hit 96374896
Core_0_L1I_load_miss 1619552
Core_0_L1I_RFOs 0
Core_0_L1I_RFO_hit 0
Core_0_L1I_RFO_miss 0
Core_0_L1I_prefetches 0
Core_0_L1I_prefetch_hit 0
Core_0_L1I_prefetch_miss 0
Core_0_L1I_writebacks 0
Core_0_L1I_writeback_hit 0
Core_0_L1I_writeback_miss 0
Core_0_L1I_prefetch_requested 0
Core_0_L1I_prefetch_dropped 0
Core_0_L1I_prefetch_issued 0
Core_0_L1I_prefetch_filled 0
Core_0_L1I_prefetch_useful 0
Core_0_L1I_prefetch_useless 0
Core_0_L1I_prefetch_late 0
Core_0_L1I_average_miss_latency 13.88608

Core_0_L1I_rq_access 499999979
Core_0_L1I_rq_forward 0
Core_0_L1I_rq_merged 401424341
Core_0_L1I_rq_to_cache 98575638
Core_0_L1I_rq_full 0

Core_0_L1I_wq_access 0
Core_0_L1I_wq_forward 0
Core_0_L1I_wq_merged 0
Core_0_L1I_wq_to_cache 0
Core_0_L1I_wq_full 0

Core_0_L1I_pq_access 0
Core_0_L1I_pq_forward 0
Core_0_L1I_pq_merged 0
Core_0_L1I_pq_to_cache 0
Core_0_L1I_pq_full 0

Core_0_L1I_acc_epochs 1671496
Core_0_L1I_acc_level_0 1671496
Core_0_L1I_acc_level_1 0
Core_0_L1I_acc_level_2 0
Core_0_L1I_acc_level_3 0
Core_0_L1I_acc_level_4 0
Core_0_L1I_acc_level_5 0
Core_0_L1I_acc_level_6 0
Core_0_L1I_acc_level_7 0
Core_0_L1I_acc_level_8 0
Core_0_L1I_acc_level_9 0

Core_0_L2C_total_access 5334563
Core_0_L2C_total_hit 4119671
Core_0_L2C_total_miss 1214892
Core_0_L2C_loads 2332176
Core_0_L2C_load_hit 1979834
Core_0_L2C_load_miss 352342
Core_0_L2C_RFOs 1354775
Core_0_L2C_RFO_hit 537534
Core_0_L2C_RFO_miss 817241
Core_0_L2C_prefetches 52343
Core_0_L2C_prefetch_hit 9463
Core_0_L2C_prefetch_miss 42880
Core_0_L2C_writebacks 1595269
Core_0_L2C_writeback_hit 1592840
Core_0_L2C_writeback_miss 2429
Core_0_L2C_prefetch_requested 735151
Core_0_L2C_prefetch_dropped 0
Core_0_L2C_prefetch_issued 735151
Core_0_L2C_prefetch_filled 101169
Core_0_L2C_prefetch_useful 28445
Core_0_L2C_prefetch_useless 72724
Core_0_L2C_prefetch_late 803
Core_0_L2C_average_miss_latency 4231.49313

Core_0_L2C_rq_access 3686984
Core_0_L2C_rq_forward 0
Core_0_L2C_rq_merged 0
Core_0_L2C_rq_to_cache 3686951
Core_0_L2C_rq_full 0

Core_0_L2C_wq_access 1595269
Core_0_L2C_wq_forward 33
Core_0_L2C_wq_merged 0
Core_0_L2C_wq_to_cache 1595269
Core_0_L2C_wq_full 0

Core_0_L2C_pq_access 735151
Core_0_L2C_pq_forward 0
Core_0_L2C_pq_merged 2098
Core_0_L2C_pq_to_cache 733053
Core_0_L2C_pq_full 0

Core_0_L2C_acc_epochs 1671496
Core_0_L2C_acc_level_0 1662248
Core_0_L2C_acc_level_1 3422
Core_0_L2C_acc_level_2 2087
Core_0_L2C_acc_level_3 723
Core_0_L2C_acc_level_4 300
Core_0_L2C_acc_level_5 1313
Core_0_L2C_acc_level_6 278
Core_0_L2C_acc_level_7 242
Core_0_L2C_acc_level_8 172
Core_0_L2C_acc_level_9 711

Core_0_LLC_total_access 2631795
Core_0_LLC_total_hit 666712
Core_0_LLC_total_miss 1965083
Core_0_LLC_loads 351564
Core_0_LLC_load_hit 232956
Core_0_LLC_load_miss 118608
Core_0_LLC_RFOs 817239
Core_0_LLC_RFO_hit 72936
Core_0_LLC_RFO_miss 744303
Core_0_LLC_prefetches 490413
Core_0_LLC_prefetch_hit 95014
Core_0_LLC_prefetch_miss 395399
Core_0_LLC_writebacks 972579
Core_0_LLC_writeback_hit 265806
Core_0_LLC_writeback_miss 706773
Core_0_LLC_prefetch_requested 0
Core_0_LLC_prefetch_dropped 0
Core_0_LLC_prefetch_issued 0
Core_0_LLC_prefetch_filled 550686
Core_0_LLC_prefetch_useful 77231
Core_0_LLC_prefetch_useless 463295
Core_0_LLC_prefetch_late 1111
Core_0_LLC_average_miss_latency 2806.28684

Core_0_LLC_rq_access 1168804
Core_0_LLC_rq_forward 0
Core_0_LLC_rq_merged 0
Core_0_LLC_rq_to_cache 1168803
Core_0_LLC_rq_full 0

Core_0_LLC_wq_access 972579
Core_0_LLC_wq_forward 1
Core_0_LLC_wq_merged 0
Core_0_LLC_wq_to_cache 972579
Core_0_LLC_wq_full 0

Core_0_LLC_pq_access 707668
Core_0_LLC_pq_forward 0
Core_0_LLC_pq_merged 186
Core_0_LLC_pq_to_cache 707482
Core_0_LLC_pq_full 0

Core_0_LLC_acc_epochs 1677071
Core_0_LLC_acc_level_0 1586052
Core_0_LLC_acc_level_1 43263
Core_0_LLC_acc_level_2 25781
Core_0_LLC_acc_level_3 2815
Core_0_LLC_acc_level_4 291
Core_0_LLC_acc_level_5 15783
Core_0_LLC_acc_level_6 307
Core_0_LLC_acc_level_7 417
Core_0_LLC_acc_level_8 99
Core_0_LLC_acc_level_9 2263

Core_0_major_page_fault 0
Core_0_minor_page_fault 6504

[MLOP] History of tracked zone:
IIIIIIIIIIIIIIIIIIIIIIIIIIIIIIIIIIIIIIIIIIIIIIIIIIIIIIIIIIIIIIII
IIIIIIIIIIIIIIIIIIIIIIIIIIIIIIIIIIIIIIIIIA44IIIIIIIIIIIIIIIIIIII
IIIIIIIIIIIIIIIIIIIIIIIIIIIIIIIIIIIIIIIIIA444II4II44I44444I4IIII
IIIIIIIIIIIIIIIIIIIIIIIIIIIIIIIIIIIIIA2222222244444444IIIIIIIIII
IIIIIIIIIIIIIIIIIIIIIIIIIIIIIIIIIIIIIA2I22222244444444IIIIIIIIII
IIIIA2I4444I4444I44I4IIIIIIIIIIIIIIIIA2I22222244444444IIIIIIIIII
IIIIAII4444I4444I44I4IIIIIIIIIIIIIIIIA2I22222244444444IIIIIIIIII
IIIIAII4444I4444IA222244I444444444IIIA2I22222244444444IIIIIIIIII
IIIIAIA4444I4444IA222244I444444444IIIA2I22222244444444IIIIIIIIII
IIIIAIA4444I4444IA22A244I444444444IIIA2I22222244444444IIIIIIIIII
IIIIAIA4444I4444IA22A244I444444444IIIA2I2222224444A444II4II4IIII
IIIIAIA4444I4444IA22A244I4A4444444I4IA2I2222224444A444II4II4IIII
IIIIAIA4444I4444IA22A244I4I4444444I4IA2I2222224444A444II4II4IIII
IIIIIIIIIIIIIIIIIIIIIIIIIIIIIIIIIIIIIIIIIIIIIIIIIIIIIIIA4IIII4II
IIIIIIIIIIIIIIIIIIIIIIIIIIIIIIIIIIIIIIIIIIIIIIIIIIIIIIIA2I222222
IIIIIIIIIIIIIIIIIIIIIIIIIIIIIIIIIIIIIIIIIIIIIIIIIIIIIIIA2I2222I2
IIIIIIIIIIIIIIIIIIIIIIIIIIIIIIIIIIIIIIIIIIIIIIIIIIIIIIIA2I222II2
IIIIIIIIIIIIIIIIIIIIIIIIIIIIIIIIIIIIIIIIIIIIIIIIIIIIIIIA2I2I2II2
IIIIIIIIIIIIIIIIIIIIIIIIIIIIIIIIIIIIIIIIIIIIIIIIIIIIIIIA2III2II2
IIIIIIIIIIIIIIIA4I4II4II4II4IIIIIIIIIIIIIIIIIIIIIIIIIIIA2III2II2
IIIIIIIIIIIIIIIA4I4II4II4II4IIIIIIIIIIIIIIIA22222222222A22222II2
IIIIIIIIIIIIIIIA4I4II4II4II4IIIIIIIIIIIIIIIA2222222I222A22222II2
IIIIIIIIIIIIIIIA2I4II4I44II44444IIIIIIIIIIIA2222222I222A22222II2
IIIIIIIIIIIIIIIA2I4II4I44II44444IIIIIIIIIIIAI222222I222A22222II2
IIIIIIIIIIIIIIIA2I4II4I44II44444IIIIIIIIIIIAII22222I222A22222II2
IIIIIIIIIIIIIIIA2I4II4I44II44444IIIIIIIIIIIAII22222I222A2I222II2
IIIIIIIIIIIIIIIA2I4II4I44II44444IIIIIIIIIIIAII22222I222A2I2I2II2
IIIIIIIIIIIIIIIIIIIIA4I4IIIIIIIIIIIIIIIIIIIIIIIIIIIIIIIIIIIIIIII
IIIIIIIIIIIIIIIIIIIIA4I4IIIIIIIIIIIIIIIIIIAII4II4II4IIIIIIIIIIII
IIIIIIIIIIIIIIIIIIIIA4I4IIIIIIIIIA4I4II4IIAII4II4II4IIIIIIIIIIII
IIIIIIIIIIIIIIIIIIIIA4I4IIIIIIIIIA4I4II4IIAII4II4II4IIIAII4II4II
IIIIIIIIIIIIIIIIIIIIA4I4IIIIIIIIIA4IAII4IIAII4II4II4IIIAII4II4II
IIIIIIIIIIIIIIIIIIIIA4A4I4II4II4IA4IAII4IIAII4II4II4IIIAII4II4II
IIIIIIIIIIIIIIIIIIIIA4A4I4II4II4IA4IAII4IIAII4II4II4A4IAII4II4II
IIIIIIIIIIIIIIIIIIIIA4A4I4II4II4IA4IAII4AIA4I44I44I4A4IAII4II4II
IIIIIIIIIIIIIIIIIIIIA4A4I4II4II4IAA4A4I4AIA4I44I44I4A4IAII4II4II
IIIIIIIIIIIIIIIIIIIIA4A4I4II4II4IAA4A4I4AIA4I44I44I4A4IAII4II4A4
IIIIIIIIIIIA4IIII4II4IIIIIIIIIIIIIIIIIIIIIIIIIIIIIIIIIIIIIIIIIII
IIIIIIIIIIIA4IIII4II4IIIIIIIIIIIIIIIIIIIIIIIIIIIIIIIIIIIA4I4II4I
IIIIIIIIIIIA4IIII4II4IIIIIIIIIIIIIIIIIIIIIIIIIIIIIIIIA4IA4I4II4I
IIIIIAII4IIA4I4II4II4IIIIIIIIIIIIIIIIIIIIIIIIIIIIIIIIA4IA4I4II4I
IIIIIIIIIIIIIIIIIIIIIIIIIIIIIIIIIIIIIIIIIIIIIIAII4II4IIIIIIIIIII
IIIIIIIIIIIIIIIIIIIIIIIIIIIIIIIIIIIIIIIIIIIIIIAIA4II4I4I4I4II44I
IIIIIIIIIIIIIIIIIIIIIIIIIA4I4II4II4II4II4IIIIIAIA4II4I4I4I4II44I
IIIIIIIIIIIIIIIIIIIIIIIIIA4I4II4II4II4II4IIIIIAIA4I44I4I4I4II44I
IIIIIIIIIIIIIIIIIIIIIIIIIA4I4II4II4II4II4IIIIIAIA4I44I4I444II44I
IIIIIIIIIIIIIIIIIIIIIIIIIA4I4II4II4II4II4IIIIIAIA4I44I4I444I444I
IIIIIIIIIIIIIIIIIIIIIIIIIIA4I4II4II4IIIIIIIIIIIIIIIIIIIIIIIIIIII
IIIIIIIIIIIIIIIIIIAII4II4IA4I4II4II4IIIIIIIIIIIIIIIIIIIIIIIIIIII
IIIIIIIIIIIIIIIIIIAII4II4IA4I4II4II4IIIIIIIIIIIIIIIIIAII4II4II4I
IIIIIIIIIIIIIIIIIAAI44I44IA4I4II4II4IIIIIIIIIIIIIIIIIAII4II4II4I
IIIIIIIIIIIIIIIIIAAI44I44IA4I4II4II4IIIIIIIIAII4II4IIAII4II4II4I
IIIIIIIIIIIIIIIIIIIA4I4II4II4IIIIIIIIIIIIIIIIIIIIIIIIIIIIIIIIIII
IIIIIIIIIIIIIIIIIIIA4I4II4II4IIIIIIIIIIIIIIIIIIIIIIIIIIIIIIA4I4I
IIIIIIIIIIIIIIIIIIIA4I4II4II4IIIIIAII4II4II4IIIIIIIIIIIIIIIA4I4I
IIIIIIIIIIIIAII4II4A444II4II4IIIIIAII4II4II4IIIIIIIIIIIIIIIA4I4I
IIIIIIIIIIIIIII4II4A444II4II4IIIIIAII4II4II4IIIIIIIIIIIIIIIA4I4I
IIIIIIIIIIIIIII4II4A444II4II4IIIIIAII4II4II4IIIIIIIIIIIIIIII4I4I
IIIIIIIIIIIIIIIIIIIIIIIIIIIIIIIIIIIIIIIIIIIIIIIIIIIIIIA4I4II4III
IIIIIIIIIIIIIIIIIIIIIIIIIIIIIIIIIIIIIIIIIIIIIIIIIIIIIII4I4II4III
IIIIIIIIIIIIIIIIIIIIIIIIIIIIIIIIIIIIIIIIIIIIIIA4I4II4II4I4II4III
IIIIIIIIIIIIIIIIIIIIIIIIIIIIIIIIIIIIA4I4II4II4A4I4II4II4I4II4III
IIIIIIIIIIIIIIIIIIIIIIIIIIIIIIIIIIIIA4A4I44I44A4I4II4II4I4II4III
IIIIIIIIIIIIIIIIIIIIIIIIIIIIIIIIIIIIIIIIIIIIIIIIIIIIIIIIIIIIIIAI
IIIIIIIIIIIIIIIIIIIIIIIIIIIIIIIIIIIIIIIIIIIIIIIIIIIIIIIIIIIIIIII
[MLOP] Prefetch Degree Mean: 6.05075
[MLOP] Prefetch Degree SD: 4.32462
[MLOP] Max Score Left Mean (%): 27.37143
[MLOP] Max Score Left SD (%): 15.99231
[MLOP] Max Score Right Mean (%): 52.78647
[MLOP] Max Score Right SD (%): 18.65950

Channel_0_RQ_row_buffer_hit 219218
Channel_0_RQ_row_buffer_miss 1039089
Channel_0_WQ_row_buffer_hit 84254
Channel_0_WQ_row_buffer_miss 781979
Channel_0_WQ_full 0
Channel_0_dbus_congested 2103429

avg_congested_cycle 195

DRAM_bw_pochs 6708284
DRAM_bw_level_0 5708327
DRAM_bw_level_1 0
DRAM_bw_level_2 0
DRAM_bw_level_3 999957
