*************************************************
   ChampSim Multicore Out-of-Order Simulator
   Last compiled: Dec 11 2024 17:59:53
*************************************************
parsing config file: /home/functionmain/桌面/Pythia/config/bingo.ini

trace_0 /home/functionmain/桌面/Pythia/traces/445.gobmk-36B.champsimtrace.xz
adding L2C_PREFETCHER: Bingo
Initialize SHIP state
warmup_instructions 100000000
simulation_instructions 500000000
champsim_seed 171
measure_ipc 0
measure_ipc_epoch 1000
measure_dram_bw 1
measure_dram_bw_epoch 256
measure_cache_acc 1
measure_cache_acc_epoch 1024
l1d_perfect 0
l2c_perfect 0
llc_perfect 0
l1d_semi_perfect 0
l2c_semi_perfect 0
llc_semi_perfect 0
semi_perfect_cache_page_buffer_size 64

num_cpus 1
cpu_freq 4000
dram_io_freq 2400
page_size 4096
block_size 64
max_read_per_cycle 8
max_fill_per_cycle 1
dram_channels 1
log2_dram_channels 0
dram_ranks 1
dram_banks 8
dram_rows 65536
dram_columns 128
dram_row_size 8
dram_size 4096
dram_pages 1048576

fetch_width 6
decode_width 6
exec_width 4
lq_width 2
sq_width 2
retire_width 4
scheduler_size 128
branch_mispredict_penalty 20
rob_size 256
lq_size 72
sq_size 56
num_instr_destinations_sparc 4
num_instr_destinations 2
num_instr_sources 4

itlb_set 16
itlb_way 8
itlb_rq_size 16
itlb_wq_size 16
itlb_pq_size 0
itlb_mshr_size 8
itlb_latency 1

dtlb_set 16
dtlb_way 4
dtlb_rq_size 16
dtlb_wq_size 16
dtlb_pq_size 0
dtlb_mshr_size 8
dtlb_latency 1

stlb_set 128
stlb_way 12
stlb_rq_size 32
stlb_wq_size 32
stlb_pq_size 0
stlb_mshr_size 16
stlb_latency 8

l1i_size 32
l1i_set 64
l1i_way 8
l1i_rq_size 64
l1i_wq_size 64
l1i_pq_size 8
l1i_mshr_size 8
l1i_latency 1

l1d_size 32
l1d_set 64
l1d_way 8
l1d_rq_size 64
l1d_wq_size 64
l1d_pq_size 8
l1d_mshr_size 16
l1d_latency 4

l2c_size 256
l2c_set 512
l2c_way 8
l2c_rq_size 32
l2c_wq_size 32
l2c_pq_size 32
l2c_mshr_size 32
l2c_latency 10

llc_size 2048
llc_set 2048
llc_way 16
llc_rq_size 32
llc_wq_size 32
llc_pq_size 32
llc_mshr_size 64
llc_latency 20

dram_channel_width 8
dram_wq_size 64
dram_rq_size 64
tRP 15
tRCD 15
tCAS 12.5
dram_dbus_turn_around_time 30
dram_write_high_wm 56
dram_write_low_wm 48
min_dram_writes_per_switch 16
dram_mtps 2400
dram_dbus_return_time 13

bingo_region_size 2048
bingo_pattern_len 32
bingo_pc_width 16
bingo_min_addr_width 5
bingo_max_addr_width 16
bingo_ft_size 64
bingo_at_size 128
bingo_pht_size 4096
bingo_pht_ways 16
bingo_pf_streamer_size 128
bingo_debug_level 0
bingo_l1d_thresh 1.01
bingo_l2c_thresh 0.8
bingo_llc_thresh 0.05
bingo_pc_address_fill_level L2


Heartbeat CPU  0 instructions:    1000000 cycles:    1143434 heartbeat IPC: 0.87456 cumulative IPC: 0.87456 (Simulation time: 0 hr 0 min 2 sec) 
Heartbeat CPU  0 instructions:    2000000 cycles:    2306974 heartbeat IPC: 0.85945 cumulative IPC: 0.86694 (Simulation time: 0 hr 0 min 3 sec) 
Heartbeat CPU  0 instructions:    3000000 cycles:    3459370 heartbeat IPC: 0.86776 cumulative IPC: 0.86721 (Simulation time: 0 hr 0 min 4 sec) 
Heartbeat CPU  0 instructions:    4000000 cycles:    4510733 heartbeat IPC: 0.95115 cumulative IPC: 0.88677 (Simulation time: 0 hr 0 min 5 sec) 
Heartbeat CPU  0 instructions:    5000001 cycles:    5594467 heartbeat IPC: 0.92274 cumulative IPC: 0.89374 (Simulation time: 0 hr 0 min 6 sec) 
Heartbeat CPU  0 instructions:    6000000 cycles:    6675423 heartbeat IPC: 0.92511 cumulative IPC: 0.89882 (Simulation time: 0 hr 0 min 7 sec) 
Heartbeat CPU  0 instructions:    7000002 cycles:    7776649 heartbeat IPC: 0.90808 cumulative IPC: 0.90013 (Simulation time: 0 hr 0 min 9 sec) 
Heartbeat CPU  0 instructions:    8000000 cycles:    8891553 heartbeat IPC: 0.89694 cumulative IPC: 0.89973 (Simulation time: 0 hr 0 min 10 sec) 
Heartbeat CPU  0 instructions:    9000002 cycles:   10003258 heartbeat IPC: 0.89952 cumulative IPC: 0.89971 (Simulation time: 0 hr 0 min 11 sec) 
Heartbeat CPU  0 instructions:   10000000 cycles:   10942605 heartbeat IPC: 1.06457 cumulative IPC: 0.91386 (Simulation time: 0 hr 0 min 12 sec) 
Heartbeat CPU  0 instructions:   11000002 cycles:   11926506 heartbeat IPC: 1.01636 cumulative IPC: 0.92232 (Simulation time: 0 hr 0 min 13 sec) 
Heartbeat CPU  0 instructions:   12000000 cycles:   13064800 heartbeat IPC: 0.87851 cumulative IPC: 0.91850 (Simulation time: 0 hr 0 min 14 sec) 
Heartbeat CPU  0 instructions:   13000001 cycles:   14085545 heartbeat IPC: 0.97968 cumulative IPC: 0.92293 (Simulation time: 0 hr 0 min 15 sec) 
Heartbeat CPU  0 instructions:   14000001 cycles:   15202448 heartbeat IPC: 0.89533 cumulative IPC: 0.92090 (Simulation time: 0 hr 0 min 16 sec) 
Heartbeat CPU  0 instructions:   15000003 cycles:   16231971 heartbeat IPC: 0.97133 cumulative IPC: 0.92410 (Simulation time: 0 hr 0 min 18 sec) 
Heartbeat CPU  0 instructions:   16000000 cycles:   17274232 heartbeat IPC: 0.95945 cumulative IPC: 0.92624 (Simulation time: 0 hr 0 min 19 sec) 
Heartbeat CPU  0 instructions:   17000001 cycles:   18299095 heartbeat IPC: 0.97574 cumulative IPC: 0.92901 (Simulation time: 0 hr 0 min 20 sec) 
Heartbeat CPU  0 instructions:   18000001 cycles:   19403052 heartbeat IPC: 0.90583 cumulative IPC: 0.92769 (Simulation time: 0 hr 0 min 21 sec) 
Heartbeat CPU  0 instructions:   19000003 cycles:   20431391 heartbeat IPC: 0.97244 cumulative IPC: 0.92994 (Simulation time: 0 hr 0 min 22 sec) 
Heartbeat CPU  0 instructions:   20000000 cycles:   21405213 heartbeat IPC: 1.02688 cumulative IPC: 0.93435 (Simulation time: 0 hr 0 min 24 sec) 
Heartbeat CPU  0 instructions:   21000002 cycles:   22409256 heartbeat IPC: 0.99598 cumulative IPC: 0.93711 (Simulation time: 0 hr 0 min 25 sec) 
Heartbeat CPU  0 instructions:   22000002 cycles:   23400752 heartbeat IPC: 1.00858 cumulative IPC: 0.94014 (Simulation time: 0 hr 0 min 26 sec) 
Heartbeat CPU  0 instructions:   23000000 cycles:   24440000 heartbeat IPC: 0.96223 cumulative IPC: 0.94108 (Simulation time: 0 hr 0 min 27 sec) 
Heartbeat CPU  0 instructions:   24000000 cycles:   25395787 heartbeat IPC: 1.04626 cumulative IPC: 0.94504 (Simulation time: 0 hr 0 min 28 sec) 
Heartbeat CPU  0 instructions:   25000000 cycles:   26453751 heartbeat IPC: 0.94521 cumulative IPC: 0.94505 (Simulation time: 0 hr 0 min 29 sec) 
Heartbeat CPU  0 instructions:   26000001 cycles:   27516061 heartbeat IPC: 0.94135 cumulative IPC: 0.94490 (Simulation time: 0 hr 0 min 31 sec) 
Heartbeat CPU  0 instructions:   27000001 cycles:   28503388 heartbeat IPC: 1.01284 cumulative IPC: 0.94726 (Simulation time: 0 hr 0 min 32 sec) 
Heartbeat CPU  0 instructions:   28000000 cycles:   29565292 heartbeat IPC: 0.94170 cumulative IPC: 0.94706 (Simulation time: 0 hr 0 min 33 sec) 
Heartbeat CPU  0 instructions:   29000002 cycles:   30602028 heartbeat IPC: 0.96457 cumulative IPC: 0.94765 (Simulation time: 0 hr 0 min 34 sec) 
Heartbeat CPU  0 instructions:   30000001 cycles:   31599313 heartbeat IPC: 1.00272 cumulative IPC: 0.94939 (Simulation time: 0 hr 0 min 35 sec) 
Heartbeat CPU  0 instructions:   31000002 cycles:   32708802 heartbeat IPC: 0.90132 cumulative IPC: 0.94776 (Simulation time: 0 hr 0 min 36 sec) 
Heartbeat CPU  0 instructions:   32000000 cycles:   33757673 heartbeat IPC: 0.95340 cumulative IPC: 0.94793 (Simulation time: 0 hr 0 min 38 sec) 
Heartbeat CPU  0 instructions:   33000000 cycles:   34824505 heartbeat IPC: 0.93735 cumulative IPC: 0.94761 (Simulation time: 0 hr 0 min 39 sec) 
Heartbeat CPU  0 instructions:   34000000 cycles:   35870703 heartbeat IPC: 0.95584 cumulative IPC: 0.94785 (Simulation time: 0 hr 0 min 40 sec) 
Heartbeat CPU  0 instructions:   35000003 cycles:   36866516 heartbeat IPC: 1.00421 cumulative IPC: 0.94937 (Simulation time: 0 hr 0 min 41 sec) 
Heartbeat CPU  0 instructions:   36000000 cycles:   37962466 heartbeat IPC: 0.91245 cumulative IPC: 0.94831 (Simulation time: 0 hr 0 min 42 sec) 
Heartbeat CPU  0 instructions:   37000003 cycles:   39023413 heartbeat IPC: 0.94256 cumulative IPC: 0.94815 (Simulation time: 0 hr 0 min 44 sec) 
Heartbeat CPU  0 instructions:   38000002 cycles:   40046137 heartbeat IPC: 0.97778 cumulative IPC: 0.94891 (Simulation time: 0 hr 0 min 45 sec) 
Heartbeat CPU  0 instructions:   39000003 cycles:   41098762 heartbeat IPC: 0.95001 cumulative IPC: 0.94893 (Simulation time: 0 hr 0 min 46 sec) 
Heartbeat CPU  0 instructions:   40000000 cycles:   42174342 heartbeat IPC: 0.92973 cumulative IPC: 0.94844 (Simulation time: 0 hr 0 min 47 sec) 
Heartbeat CPU  0 instructions:   41000003 cycles:   43296366 heartbeat IPC: 0.89125 cumulative IPC: 0.94696 (Simulation time: 0 hr 0 min 48 sec) 
Heartbeat CPU  0 instructions:   42000001 cycles:   44325955 heartbeat IPC: 0.97126 cumulative IPC: 0.94753 (Simulation time: 0 hr 0 min 50 sec) 
Heartbeat CPU  0 instructions:   43000002 cycles:   45345455 heartbeat IPC: 0.98087 cumulative IPC: 0.94828 (Simulation time: 0 hr 0 min 51 sec) 
Heartbeat CPU  0 instructions:   44000000 cycles:   46428844 heartbeat IPC: 0.92303 cumulative IPC: 0.94769 (Simulation time: 0 hr 0 min 52 sec) 
Heartbeat CPU  0 instructions:   45000001 cycles:   47543549 heartbeat IPC: 0.89710 cumulative IPC: 0.94650 (Simulation time: 0 hr 0 min 53 sec) 
Heartbeat CPU  0 instructions:   46000002 cycles:   48600772 heartbeat IPC: 0.94588 cumulative IPC: 0.94649 (Simulation time: 0 hr 0 min 54 sec) 
Heartbeat CPU  0 instructions:   47000003 cycles:   49567841 heartbeat IPC: 1.03405 cumulative IPC: 0.94820 (Simulation time: 0 hr 0 min 55 sec) 
Heartbeat CPU  0 instructions:   48000000 cycles:   50569483 heartbeat IPC: 0.99836 cumulative IPC: 0.94919 (Simulation time: 0 hr 0 min 57 sec) 
Heartbeat CPU  0 instructions:   49000000 cycles:   51625986 heartbeat IPC: 0.94652 cumulative IPC: 0.94913 (Simulation time: 0 hr 0 min 58 sec) 
Heartbeat CPU  0 instructions:   50000001 cycles:   52671765 heartbeat IPC: 0.95623 cumulative IPC: 0.94928 (Simulation time: 0 hr 0 min 59 sec) 
Heartbeat CPU  0 instructions:   51000001 cycles:   53720652 heartbeat IPC: 0.95339 cumulative IPC: 0.94936 (Simulation time: 0 hr 1 min 0 sec) 
Heartbeat CPU  0 instructions:   52000000 cycles:   54788263 heartbeat IPC: 0.93667 cumulative IPC: 0.94911 (Simulation time: 0 hr 1 min 1 sec) 
Heartbeat CPU  0 instructions:   53000000 cycles:   55895428 heartbeat IPC: 0.90321 cumulative IPC: 0.94820 (Simulation time: 0 hr 1 min 2 sec) 
Heartbeat CPU  0 instructions:   54000003 cycles:   57012754 heartbeat IPC: 0.89500 cumulative IPC: 0.94716 (Simulation time: 0 hr 1 min 4 sec) 
Heartbeat CPU  0 instructions:   55000003 cycles:   58100665 heartbeat IPC: 0.91919 cumulative IPC: 0.94663 (Simulation time: 0 hr 1 min 5 sec) 
Heartbeat CPU  0 instructions:   56000000 cycles:   59161291 heartbeat IPC: 0.94284 cumulative IPC: 0.94656 (Simulation time: 0 hr 1 min 6 sec) 
Heartbeat CPU  0 instructions:   57000000 cycles:   60267436 heartbeat IPC: 0.90404 cumulative IPC: 0.94578 (Simulation time: 0 hr 1 min 7 sec) 
Heartbeat CPU  0 instructions:   58000000 cycles:   61311538 heartbeat IPC: 0.95776 cumulative IPC: 0.94599 (Simulation time: 0 hr 1 min 8 sec) 
Heartbeat CPU  0 instructions:   59000003 cycles:   62422089 heartbeat IPC: 0.90046 cumulative IPC: 0.94518 (Simulation time: 0 hr 1 min 10 sec) 
Heartbeat CPU  0 instructions:   60000000 cycles:   63490915 heartbeat IPC: 0.93560 cumulative IPC: 0.94502 (Simulation time: 0 hr 1 min 11 sec) 
Heartbeat CPU  0 instructions:   61000001 cycles:   64631453 heartbeat IPC: 0.87678 cumulative IPC: 0.94381 (Simulation time: 0 hr 1 min 12 sec) 
Heartbeat CPU  0 instructions:   62000001 cycles:   65681456 heartbeat IPC: 0.95238 cumulative IPC: 0.94395 (Simulation time: 0 hr 1 min 13 sec) 
Heartbeat CPU  0 instructions:   63000000 cycles:   66732603 heartbeat IPC: 0.95134 cumulative IPC: 0.94407 (Simulation time: 0 hr 1 min 14 sec) 
Heartbeat CPU  0 instructions:   64000000 cycles:   67805446 heartbeat IPC: 0.93210 cumulative IPC: 0.94388 (Simulation time: 0 hr 1 min 15 sec) 
Heartbeat CPU  0 instructions:   65000000 cycles:   68886894 heartbeat IPC: 0.92469 cumulative IPC: 0.94358 (Simulation time: 0 hr 1 min 17 sec) 
Heartbeat CPU  0 instructions:   66000000 cycles:   69977913 heartbeat IPC: 0.91657 cumulative IPC: 0.94315 (Simulation time: 0 hr 1 min 18 sec) 
Heartbeat CPU  0 instructions:   67000000 cycles:   71009197 heartbeat IPC: 0.96966 cumulative IPC: 0.94354 (Simulation time: 0 hr 1 min 19 sec) 
Heartbeat CPU  0 instructions:   68000000 cycles:   72064871 heartbeat IPC: 0.94726 cumulative IPC: 0.94359 (Simulation time: 0 hr 1 min 20 sec) 
Heartbeat CPU  0 instructions:   69000003 cycles:   73152904 heartbeat IPC: 0.91909 cumulative IPC: 0.94323 (Simulation time: 0 hr 1 min 22 sec) 
Heartbeat CPU  0 instructions:   70000001 cycles:   74334273 heartbeat IPC: 0.84647 cumulative IPC: 0.94169 (Simulation time: 0 hr 1 min 23 sec) 
Heartbeat CPU  0 instructions:   71000001 cycles:   75352782 heartbeat IPC: 0.98183 cumulative IPC: 0.94223 (Simulation time: 0 hr 1 min 24 sec) 
Heartbeat CPU  0 instructions:   72000000 cycles:   76424646 heartbeat IPC: 0.93295 cumulative IPC: 0.94210 (Simulation time: 0 hr 1 min 25 sec) 
Heartbeat CPU  0 instructions:   73000002 cycles:   77552458 heartbeat IPC: 0.88667 cumulative IPC: 0.94130 (Simulation time: 0 hr 1 min 26 sec) 
Heartbeat CPU  0 instructions:   74000000 cycles:   78629306 heartbeat IPC: 0.92863 cumulative IPC: 0.94112 (Simulation time: 0 hr 1 min 27 sec) 
Heartbeat CPU  0 instructions:   75000001 cycles:   79707070 heartbeat IPC: 0.92785 cumulative IPC: 0.94095 (Simulation time: 0 hr 1 min 29 sec) 
Heartbeat CPU  0 instructions:   76000000 cycles:   80683821 heartbeat IPC: 1.02380 cumulative IPC: 0.94195 (Simulation time: 0 hr 1 min 30 sec) 
Heartbeat CPU  0 instructions:   77000001 cycles:   81772009 heartbeat IPC: 0.91896 cumulative IPC: 0.94164 (Simulation time: 0 hr 1 min 31 sec) 
Heartbeat CPU  0 instructions:   78000000 cycles:   82822270 heartbeat IPC: 0.95214 cumulative IPC: 0.94178 (Simulation time: 0 hr 1 min 32 sec) 
Heartbeat CPU  0 instructions:   79000000 cycles:   83935310 heartbeat IPC: 0.89844 cumulative IPC: 0.94120 (Simulation time: 0 hr 1 min 33 sec) 
Heartbeat CPU  0 instructions:   80000000 cycles:   84937552 heartbeat IPC: 0.99776 cumulative IPC: 0.94187 (Simulation time: 0 hr 1 min 34 sec) 
Heartbeat CPU  0 instructions:   81000003 cycles:   85954201 heartbeat IPC: 0.98363 cumulative IPC: 0.94236 (Simulation time: 0 hr 1 min 36 sec) 
Heartbeat CPU  0 instructions:   82000002 cycles:   87049872 heartbeat IPC: 0.91268 cumulative IPC: 0.94199 (Simulation time: 0 hr 1 min 37 sec) 
Heartbeat CPU  0 instructions:   83000001 cycles:   88143490 heartbeat IPC: 0.91440 cumulative IPC: 0.94165 (Simulation time: 0 hr 1 min 38 sec) 
Heartbeat CPU  0 instructions:   84000000 cycles:   89097013 heartbeat IPC: 1.04874 cumulative IPC: 0.94279 (Simulation time: 0 hr 1 min 39 sec) 
Heartbeat CPU  0 instructions:   85000001 cycles:   90237175 heartbeat IPC: 0.87707 cumulative IPC: 0.94196 (Simulation time: 0 hr 1 min 40 sec) 
Heartbeat CPU  0 instructions:   86000000 cycles:   91399995 heartbeat IPC: 0.85998 cumulative IPC: 0.94092 (Simulation time: 0 hr 1 min 42 sec) 
Heartbeat CPU  0 instructions:   87000000 cycles:   92497788 heartbeat IPC: 0.91092 cumulative IPC: 0.94056 (Simulation time: 0 hr 1 min 43 sec) 
Heartbeat CPU  0 instructions:   88000000 cycles:   93591956 heartbeat IPC: 0.91394 cumulative IPC: 0.94025 (Simulation time: 0 hr 1 min 44 sec) 
Heartbeat CPU  0 instructions:   89000001 cycles:   94734313 heartbeat IPC: 0.87538 cumulative IPC: 0.93947 (Simulation time: 0 hr 1 min 45 sec) 
Heartbeat CPU  0 instructions:   90000000 cycles:   95868771 heartbeat IPC: 0.88148 cumulative IPC: 0.93878 (Simulation time: 0 hr 1 min 46 sec) 
Heartbeat CPU  0 instructions:   91000000 cycles:   97034050 heartbeat IPC: 0.85816 cumulative IPC: 0.93782 (Simulation time: 0 hr 1 min 47 sec) 
Heartbeat CPU  0 instructions:   92000000 cycles:   98069314 heartbeat IPC: 0.96594 cumulative IPC: 0.93811 (Simulation time: 0 hr 1 min 49 sec) 
Heartbeat CPU  0 instructions:   93000003 cycles:   99033362 heartbeat IPC: 1.03730 cumulative IPC: 0.93908 (Simulation time: 0 hr 1 min 50 sec) 
Heartbeat CPU  0 instructions:   94000003 cycles:  100162296 heartbeat IPC: 0.88579 cumulative IPC: 0.93848 (Simulation time: 0 hr 1 min 51 sec) 
Heartbeat CPU  0 instructions:   95000000 cycles:  101215316 heartbeat IPC: 0.94965 cumulative IPC: 0.93859 (Simulation time: 0 hr 1 min 52 sec) 
Heartbeat CPU  0 instructions:   96000000 cycles:  102305371 heartbeat IPC: 0.91738 cumulative IPC: 0.93837 (Simulation time: 0 hr 1 min 53 sec) 
Heartbeat CPU  0 instructions:   97000000 cycles:  103422889 heartbeat IPC: 0.89484 cumulative IPC: 0.93790 (Simulation time: 0 hr 1 min 55 sec) 
Heartbeat CPU  0 instructions:   98000001 cycles:  104415234 heartbeat IPC: 1.00772 cumulative IPC: 0.93856 (Simulation time: 0 hr 1 min 56 sec) 
Heartbeat CPU  0 instructions:   99000000 cycles:  105443373 heartbeat IPC: 0.97263 cumulative IPC: 0.93889 (Simulation time: 0 hr 1 min 57 sec) 
Heartbeat CPU  0 instructions:  100000000 cycles:  106500391 heartbeat IPC: 0.94606 cumulative IPC: 0.93896 (Simulation time: 0 hr 1 min 58 sec) 

Warmup complete CPU  0 instructions:  100000001 cycles:  106500393 (Simulation time: 0 hr 1 min 58 sec) 

Heartbeat CPU  0 instructions:  101000000 cycles:  109275247 heartbeat IPC: 0.36038 cumulative IPC: 0.36038 (Simulation time: 0 hr 2 min 0 sec) 
Heartbeat CPU  0 instructions:  102000001 cycles:  111933634 heartbeat IPC: 0.37617 cumulative IPC: 0.36810 (Simulation time: 0 hr 2 min 2 sec) 
Heartbeat CPU  0 instructions:  103000003 cycles:  114533928 heartbeat IPC: 0.38457 cumulative IPC: 0.37343 (Simulation time: 0 hr 2 min 4 sec) 
Heartbeat CPU  0 instructions:  104000000 cycles:  117053846 heartbeat IPC: 0.39684 cumulative IPC: 0.37902 (Simulation time: 0 hr 2 min 6 sec) 
Heartbeat CPU  0 instructions:  105000000 cycles:  119836054 heartbeat IPC: 0.35943 cumulative IPC: 0.37493 (Simulation time: 0 hr 2 min 7 sec) 
Heartbeat CPU  0 instructions:  106000000 cycles:  122523214 heartbeat IPC: 0.37214 cumulative IPC: 0.37447 (Simulation time: 0 hr 2 min 9 sec) 
Heartbeat CPU  0 instructions:  107000001 cycles:  125113208 heartbeat IPC: 0.38610 cumulative IPC: 0.37608 (Simulation time: 0 hr 2 min 11 sec) 
Heartbeat CPU  0 instructions:  108000000 cycles:  127775931 heartbeat IPC: 0.37556 cumulative IPC: 0.37602 (Simulation time: 0 hr 2 min 13 sec) 
Heartbeat CPU  0 instructions:  109000002 cycles:  130422764 heartbeat IPC: 0.37781 cumulative IPC: 0.37622 (Simulation time: 0 hr 2 min 15 sec) 
Heartbeat CPU  0 instructions:  110000002 cycles:  133064539 heartbeat IPC: 0.37853 cumulative IPC: 0.37645 (Simulation time: 0 hr 2 min 17 sec) 
Heartbeat CPU  0 instructions:  111000000 cycles:  135542178 heartbeat IPC: 0.40361 cumulative IPC: 0.37876 (Simulation time: 0 hr 2 min 19 sec) 
Heartbeat CPU  0 instructions:  112000000 cycles:  138285265 heartbeat IPC: 0.36455 cumulative IPC: 0.37754 (Simulation time: 0 hr 2 min 21 sec) 
Heartbeat CPU  0 instructions:  113000000 cycles:  140886663 heartbeat IPC: 0.38441 cumulative IPC: 0.37806 (Simulation time: 0 hr 2 min 23 sec) 
Heartbeat CPU  0 instructions:  114000000 cycles:  143703308 heartbeat IPC: 0.35503 cumulative IPC: 0.37631 (Simulation time: 0 hr 2 min 24 sec) 
Heartbeat CPU  0 instructions:  115000003 cycles:  146427896 heartbeat IPC: 0.36703 cumulative IPC: 0.37568 (Simulation time: 0 hr 2 min 26 sec) 
Heartbeat CPU  0 instructions:  116000000 cycles:  149110289 heartbeat IPC: 0.37280 cumulative IPC: 0.37550 (Simulation time: 0 hr 2 min 28 sec) 
Heartbeat CPU  0 instructions:  117000001 cycles:  151749901 heartbeat IPC: 0.37884 cumulative IPC: 0.37569 (Simulation time: 0 hr 2 min 30 sec) 
Heartbeat CPU  0 instructions:  118000000 cycles:  154367539 heartbeat IPC: 0.38202 cumulative IPC: 0.37604 (Simulation time: 0 hr 2 min 32 sec) 
Heartbeat CPU  0 instructions:  119000001 cycles:  157162290 heartbeat IPC: 0.35781 cumulative IPC: 0.37504 (Simulation time: 0 hr 2 min 34 sec) 
Heartbeat CPU  0 instructions:  120000000 cycles:  159816665 heartbeat IPC: 0.37674 cumulative IPC: 0.37512 (Simulation time: 0 hr 2 min 36 sec) 
Heartbeat CPU  0 instructions:  121000000 cycles:  162563907 heartbeat IPC: 0.36400 cumulative IPC: 0.37458 (Simulation time: 0 hr 2 min 38 sec) 
Heartbeat CPU  0 instructions:  122000001 cycles:  165248244 heartbeat IPC: 0.37253 cumulative IPC: 0.37448 (Simulation time: 0 hr 2 min 40 sec) 
Heartbeat CPU  0 instructions:  123000000 cycles:  167861977 heartbeat IPC: 0.38259 cumulative IPC: 0.37483 (Simulation time: 0 hr 2 min 42 sec) 
Heartbeat CPU  0 instructions:  124000000 cycles:  170559271 heartbeat IPC: 0.37074 cumulative IPC: 0.37466 (Simulation time: 0 hr 2 min 44 sec) 
Heartbeat CPU  0 instructions:  125000001 cycles:  173324310 heartbeat IPC: 0.36166 cumulative IPC: 0.37412 (Simulation time: 0 hr 2 min 45 sec) 
Heartbeat CPU  0 instructions:  126000000 cycles:  176064886 heartbeat IPC: 0.36489 cumulative IPC: 0.37375 (Simulation time: 0 hr 2 min 47 sec) 
Heartbeat CPU  0 instructions:  127000000 cycles:  178577689 heartbeat IPC: 0.39796 cumulative IPC: 0.37460 (Simulation time: 0 hr 2 min 49 sec) 
Heartbeat CPU  0 instructions:  128000000 cycles:  181274980 heartbeat IPC: 0.37074 cumulative IPC: 0.37446 (Simulation time: 0 hr 2 min 51 sec) 
Heartbeat CPU  0 instructions:  129000001 cycles:  184044013 heartbeat IPC: 0.36114 cumulative IPC: 0.37398 (Simulation time: 0 hr 2 min 53 sec) 
Heartbeat CPU  0 instructions:  130000000 cycles:  186741403 heartbeat IPC: 0.37073 cumulative IPC: 0.37387 (Simulation time: 0 hr 2 min 55 sec) 
Heartbeat CPU  0 instructions:  131000001 cycles:  189330201 heartbeat IPC: 0.38628 cumulative IPC: 0.37426 (Simulation time: 0 hr 2 min 57 sec) 
Heartbeat CPU  0 instructions:  132000000 cycles:  191942495 heartbeat IPC: 0.38280 cumulative IPC: 0.37452 (Simulation time: 0 hr 2 min 59 sec) 
Heartbeat CPU  0 instructions:  133000000 cycles:  194594896 heartbeat IPC: 0.37702 cumulative IPC: 0.37460 (Simulation time: 0 hr 3 min 1 sec) 
Heartbeat CPU  0 instructions:  134000001 cycles:  197295445 heartbeat IPC: 0.37030 cumulative IPC: 0.37447 (Simulation time: 0 hr 3 min 2 sec) 
Heartbeat CPU  0 instructions:  135000002 cycles:  200035067 heartbeat IPC: 0.36501 cumulative IPC: 0.37419 (Simulation time: 0 hr 3 min 4 sec) 
Heartbeat CPU  0 instructions:  136000000 cycles:  202516914 heartbeat IPC: 0.40292 cumulative IPC: 0.37494 (Simulation time: 0 hr 3 min 6 sec) 
Heartbeat CPU  0 instructions:  137000002 cycles:  205185230 heartbeat IPC: 0.37477 cumulative IPC: 0.37493 (Simulation time: 0 hr 3 min 8 sec) 
Heartbeat CPU  0 instructions:  138000000 cycles:  207874972 heartbeat IPC: 0.37178 cumulative IPC: 0.37485 (Simulation time: 0 hr 3 min 10 sec) 
Heartbeat CPU  0 instructions:  139000000 cycles:  210521332 heartbeat IPC: 0.37788 cumulative IPC: 0.37492 (Simulation time: 0 hr 3 min 12 sec) 
Heartbeat CPU  0 instructions:  140000000 cycles:  213274330 heartbeat IPC: 0.36324 cumulative IPC: 0.37462 (Simulation time: 0 hr 3 min 14 sec) 
Heartbeat CPU  0 instructions:  141000000 cycles:  215611349 heartbeat IPC: 0.42790 cumulative IPC: 0.37576 (Simulation time: 0 hr 3 min 15 sec) 
Heartbeat CPU  0 instructions:  142000000 cycles:  217988438 heartbeat IPC: 0.42068 cumulative IPC: 0.37672 (Simulation time: 0 hr 3 min 17 sec) 
Heartbeat CPU  0 instructions:  143000000 cycles:  220822040 heartbeat IPC: 0.35291 cumulative IPC: 0.37613 (Simulation time: 0 hr 3 min 19 sec) 
Heartbeat CPU  0 instructions:  144000000 cycles:  223613189 heartbeat IPC: 0.35828 cumulative IPC: 0.37571 (Simulation time: 0 hr 3 min 21 sec) 
Heartbeat CPU  0 instructions:  145000003 cycles:  226306695 heartbeat IPC: 0.37126 cumulative IPC: 0.37561 (Simulation time: 0 hr 3 min 23 sec) 
Heartbeat CPU  0 instructions:  146000000 cycles:  229049059 heartbeat IPC: 0.36465 cumulative IPC: 0.37536 (Simulation time: 0 hr 3 min 25 sec) 
Heartbeat CPU  0 instructions:  147000000 cycles:  231737882 heartbeat IPC: 0.37191 cumulative IPC: 0.37529 (Simulation time: 0 hr 3 min 27 sec) 
Heartbeat CPU  0 instructions:  148000000 cycles:  234463789 heartbeat IPC: 0.36685 cumulative IPC: 0.37511 (Simulation time: 0 hr 3 min 28 sec) 
Heartbeat CPU  0 instructions:  149000000 cycles:  236765836 heartbeat IPC: 0.43440 cumulative IPC: 0.37616 (Simulation time: 0 hr 3 min 30 sec) 
Heartbeat CPU  0 instructions:  150000000 cycles:  238938049 heartbeat IPC: 0.46036 cumulative IPC: 0.37754 (Simulation time: 0 hr 3 min 32 sec) 
Heartbeat CPU  0 instructions:  151000003 cycles:  241426992 heartbeat IPC: 0.40178 cumulative IPC: 0.37798 (Simulation time: 0 hr 3 min 34 sec) 
Heartbeat CPU  0 instructions:  152000000 cycles:  244258221 heartbeat IPC: 0.35320 cumulative IPC: 0.37747 (Simulation time: 0 hr 3 min 35 sec) 
Heartbeat CPU  0 instructions:  153000000 cycles:  246985230 heartbeat IPC: 0.36670 cumulative IPC: 0.37726 (Simulation time: 0 hr 3 min 37 sec) 
Heartbeat CPU  0 instructions:  154000000 cycles:  249693728 heartbeat IPC: 0.36921 cumulative IPC: 0.37711 (Simulation time: 0 hr 3 min 39 sec) 
Heartbeat CPU  0 instructions:  155000002 cycles:  252395760 heartbeat IPC: 0.37009 cumulative IPC: 0.37698 (Simulation time: 0 hr 3 min 41 sec) 
Heartbeat CPU  0 instructions:  156000000 cycles:  255120022 heartbeat IPC: 0.36707 cumulative IPC: 0.37680 (Simulation time: 0 hr 3 min 43 sec) 
Heartbeat CPU  0 instructions:  157000000 cycles:  257849833 heartbeat IPC: 0.36633 cumulative IPC: 0.37661 (Simulation time: 0 hr 3 min 45 sec) 
Heartbeat CPU  0 instructions:  158000002 cycles:  259823795 heartbeat IPC: 0.50660 cumulative IPC: 0.37829 (Simulation time: 0 hr 3 min 46 sec) 
Heartbeat CPU  0 instructions:  159000001 cycles:  262125086 heartbeat IPC: 0.43454 cumulative IPC: 0.37912 (Simulation time: 0 hr 3 min 48 sec) 
Heartbeat CPU  0 instructions:  160000000 cycles:  264836857 heartbeat IPC: 0.36876 cumulative IPC: 0.37894 (Simulation time: 0 hr 3 min 50 sec) 
Heartbeat CPU  0 instructions:  161000002 cycles:  267502330 heartbeat IPC: 0.37517 cumulative IPC: 0.37888 (Simulation time: 0 hr 3 min 52 sec) 
Heartbeat CPU  0 instructions:  162000000 cycles:  270362747 heartbeat IPC: 0.34960 cumulative IPC: 0.37837 (Simulation time: 0 hr 3 min 54 sec) 
Heartbeat CPU  0 instructions:  163000001 cycles:  273048330 heartbeat IPC: 0.37236 cumulative IPC: 0.37827 (Simulation time: 0 hr 3 min 56 sec) 
Heartbeat CPU  0 instructions:  164000000 cycles:  275746601 heartbeat IPC: 0.37061 cumulative IPC: 0.37815 (Simulation time: 0 hr 3 min 58 sec) 
Heartbeat CPU  0 instructions:  165000001 cycles:  278449320 heartbeat IPC: 0.37000 cumulative IPC: 0.37802 (Simulation time: 0 hr 3 min 59 sec) 
Heartbeat CPU  0 instructions:  166000001 cycles:  281174566 heartbeat IPC: 0.36694 cumulative IPC: 0.37785 (Simulation time: 0 hr 4 min 1 sec) 
Heartbeat CPU  0 instructions:  167000003 cycles:  283956501 heartbeat IPC: 0.35946 cumulative IPC: 0.37756 (Simulation time: 0 hr 4 min 3 sec) 
Heartbeat CPU  0 instructions:  168000000 cycles:  286686574 heartbeat IPC: 0.36629 cumulative IPC: 0.37739 (Simulation time: 0 hr 4 min 5 sec) 
Heartbeat CPU  0 instructions:  169000003 cycles:  289406886 heartbeat IPC: 0.36761 cumulative IPC: 0.37724 (Simulation time: 0 hr 4 min 7 sec) 
Heartbeat CPU  0 instructions:  170000001 cycles:  292121714 heartbeat IPC: 0.36835 cumulative IPC: 0.37711 (Simulation time: 0 hr 4 min 9 sec) 
Heartbeat CPU  0 instructions:  171000001 cycles:  294191445 heartbeat IPC: 0.48315 cumulative IPC: 0.37828 (Simulation time: 0 hr 4 min 10 sec) 
Heartbeat CPU  0 instructions:  172000000 cycles:  296608832 heartbeat IPC: 0.41367 cumulative IPC: 0.37873 (Simulation time: 0 hr 4 min 12 sec) 
Heartbeat CPU  0 instructions:  173000000 cycles:  299284968 heartbeat IPC: 0.37367 cumulative IPC: 0.37866 (Simulation time: 0 hr 4 min 14 sec) 
Heartbeat CPU  0 instructions:  174000000 cycles:  301747843 heartbeat IPC: 0.40603 cumulative IPC: 0.37901 (Simulation time: 0 hr 4 min 16 sec) 
Heartbeat CPU  0 instructions:  175000000 cycles:  304266589 heartbeat IPC: 0.39702 cumulative IPC: 0.37924 (Simulation time: 0 hr 4 min 18 sec) 
Heartbeat CPU  0 instructions:  176000000 cycles:  306949054 heartbeat IPC: 0.37279 cumulative IPC: 0.37915 (Simulation time: 0 hr 4 min 20 sec) 
Heartbeat CPU  0 instructions:  177000000 cycles:  309696754 heartbeat IPC: 0.36394 cumulative IPC: 0.37894 (Simulation time: 0 hr 4 min 21 sec) 
Heartbeat CPU  0 instructions:  178000003 cycles:  312335547 heartbeat IPC: 0.37896 cumulative IPC: 0.37894 (Simulation time: 0 hr 4 min 23 sec) 
Heartbeat CPU  0 instructions:  179000002 cycles:  315021735 heartbeat IPC: 0.37227 cumulative IPC: 0.37886 (Simulation time: 0 hr 4 min 25 sec) 
Heartbeat CPU  0 instructions:  180000000 cycles:  317616375 heartbeat IPC: 0.38541 cumulative IPC: 0.37894 (Simulation time: 0 hr 4 min 27 sec) 
Heartbeat CPU  0 instructions:  181000001 cycles:  320328313 heartbeat IPC: 0.36874 cumulative IPC: 0.37881 (Simulation time: 0 hr 4 min 29 sec) 
Heartbeat CPU  0 instructions:  182000000 cycles:  323173229 heartbeat IPC: 0.35150 cumulative IPC: 0.37845 (Simulation time: 0 hr 4 min 31 sec) 
Heartbeat CPU  0 instructions:  183000000 cycles:  325880008 heartbeat IPC: 0.36944 cumulative IPC: 0.37834 (Simulation time: 0 hr 4 min 33 sec) 
Heartbeat CPU  0 instructions:  184000000 cycles:  328565740 heartbeat IPC: 0.37234 cumulative IPC: 0.37827 (Simulation time: 0 hr 4 min 35 sec) 
Heartbeat CPU  0 instructions:  185000000 cycles:  331235030 heartbeat IPC: 0.37463 cumulative IPC: 0.37822 (Simulation time: 0 hr 4 min 37 sec) 
Heartbeat CPU  0 instructions:  186000003 cycles:  333948693 heartbeat IPC: 0.36851 cumulative IPC: 0.37811 (Simulation time: 0 hr 4 min 39 sec) 
Heartbeat CPU  0 instructions:  187000001 cycles:  336707485 heartbeat IPC: 0.36248 cumulative IPC: 0.37792 (Simulation time: 0 hr 4 min 41 sec) 
Heartbeat CPU  0 instructions:  188000000 cycles:  339425027 heartbeat IPC: 0.36798 cumulative IPC: 0.37780 (Simulation time: 0 hr 4 min 43 sec) 
Heartbeat CPU  0 instructions:  189000001 cycles:  342147057 heartbeat IPC: 0.36737 cumulative IPC: 0.37768 (Simulation time: 0 hr 4 min 44 sec) 
Heartbeat CPU  0 instructions:  190000000 cycles:  344925073 heartbeat IPC: 0.35997 cumulative IPC: 0.37748 (Simulation time: 0 hr 4 min 46 sec) 
Heartbeat CPU  0 instructions:  191000001 cycles:  347630037 heartbeat IPC: 0.36969 cumulative IPC: 0.37739 (Simulation time: 0 hr 4 min 48 sec) 
Heartbeat CPU  0 instructions:  192000000 cycles:  350382176 heartbeat IPC: 0.36335 cumulative IPC: 0.37723 (Simulation time: 0 hr 4 min 50 sec) 
Heartbeat CPU  0 instructions:  193000002 cycles:  352965332 heartbeat IPC: 0.38712 cumulative IPC: 0.37734 (Simulation time: 0 hr 4 min 52 sec) 
Heartbeat CPU  0 instructions:  194000001 cycles:  354900890 heartbeat IPC: 0.51665 cumulative IPC: 0.37842 (Simulation time: 0 hr 4 min 53 sec) 
Heartbeat CPU  0 instructions:  195000000 cycles:  357323654 heartbeat IPC: 0.41275 cumulative IPC: 0.37875 (Simulation time: 0 hr 4 min 55 sec) 
Heartbeat CPU  0 instructions:  196000000 cycles:  360209480 heartbeat IPC: 0.34652 cumulative IPC: 0.37839 (Simulation time: 0 hr 4 min 57 sec) 
Heartbeat CPU  0 instructions:  197000000 cycles:  362884762 heartbeat IPC: 0.37379 cumulative IPC: 0.37834 (Simulation time: 0 hr 4 min 59 sec) 
Heartbeat CPU  0 instructions:  198000000 cycles:  365595588 heartbeat IPC: 0.36889 cumulative IPC: 0.37824 (Simulation time: 0 hr 5 min 1 sec) 
Heartbeat CPU  0 instructions:  199000000 cycles:  368189782 heartbeat IPC: 0.38548 cumulative IPC: 0.37831 (Simulation time: 0 hr 5 min 3 sec) 
Heartbeat CPU  0 instructions:  200000000 cycles:  370711391 heartbeat IPC: 0.39657 cumulative IPC: 0.37849 (Simulation time: 0 hr 5 min 5 sec) 
Heartbeat CPU  0 instructions:  201000001 cycles:  373435925 heartbeat IPC: 0.36704 cumulative IPC: 0.37837 (Simulation time: 0 hr 5 min 6 sec) 
Heartbeat CPU  0 instructions:  202000002 cycles:  376094574 heartbeat IPC: 0.37613 cumulative IPC: 0.37835 (Simulation time: 0 hr 5 min 8 sec) 
Heartbeat CPU  0 instructions:  203000001 cycles:  378838991 heartbeat IPC: 0.36438 cumulative IPC: 0.37821 (Simulation time: 0 hr 5 min 10 sec) 
Heartbeat CPU  0 instructions:  204000000 cycles:  381600660 heartbeat IPC: 0.36210 cumulative IPC: 0.37804 (Simulation time: 0 hr 5 min 12 sec) 
Heartbeat CPU  0 instructions:  205000002 cycles:  384292099 heartbeat IPC: 0.37155 cumulative IPC: 0.37798 (Simulation time: 0 hr 5 min 14 sec) 
Heartbeat CPU  0 instructions:  206000002 cycles:  386990184 heartbeat IPC: 0.37063 cumulative IPC: 0.37791 (Simulation time: 0 hr 5 min 16 sec) 
Heartbeat CPU  0 instructions:  207000001 cycles:  389682625 heartbeat IPC: 0.37141 cumulative IPC: 0.37785 (Simulation time: 0 hr 5 min 18 sec) 
Heartbeat CPU  0 instructions:  208000000 cycles:  392425017 heartbeat IPC: 0.36464 cumulative IPC: 0.37772 (Simulation time: 0 hr 5 min 20 sec) 
Heartbeat CPU  0 instructions:  209000001 cycles:  394963622 heartbeat IPC: 0.39392 cumulative IPC: 0.37786 (Simulation time: 0 hr 5 min 22 sec) 
Heartbeat CPU  0 instructions:  210000000 cycles:  397175852 heartbeat IPC: 0.45203 cumulative IPC: 0.37843 (Simulation time: 0 hr 5 min 23 sec) 
Heartbeat CPU  0 instructions:  211000000 cycles:  399428469 heartbeat IPC: 0.44393 cumulative IPC: 0.37893 (Simulation time: 0 hr 5 min 25 sec) 
Heartbeat CPU  0 instructions:  212000000 cycles:  402205023 heartbeat IPC: 0.36016 cumulative IPC: 0.37876 (Simulation time: 0 hr 5 min 27 sec) 
Heartbeat CPU  0 instructions:  213000000 cycles:  404921320 heartbeat IPC: 0.36815 cumulative IPC: 0.37866 (Simulation time: 0 hr 5 min 29 sec) 
Heartbeat CPU  0 instructions:  214000000 cycles:  407729290 heartbeat IPC: 0.35613 cumulative IPC: 0.37845 (Simulation time: 0 hr 5 min 30 sec) 
Heartbeat CPU  0 instructions:  215000002 cycles:  410467390 heartbeat IPC: 0.36522 cumulative IPC: 0.37833 (Simulation time: 0 hr 5 min 32 sec) 
Heartbeat CPU  0 instructions:  216000000 cycles:  413180122 heartbeat IPC: 0.36863 cumulative IPC: 0.37824 (Simulation time: 0 hr 5 min 34 sec) 
Heartbeat CPU  0 instructions:  217000000 cycles:  415850565 heartbeat IPC: 0.37447 cumulative IPC: 0.37821 (Simulation time: 0 hr 5 min 36 sec) 
Heartbeat CPU  0 instructions:  218000003 cycles:  418570969 heartbeat IPC: 0.36759 cumulative IPC: 0.37812 (Simulation time: 0 hr 5 min 38 sec) 
Heartbeat CPU  0 instructions:  219000000 cycles:  421296879 heartbeat IPC: 0.36685 cumulative IPC: 0.37802 (Simulation time: 0 hr 5 min 40 sec) 
Heartbeat CPU  0 instructions:  220000000 cycles:  423972549 heartbeat IPC: 0.37374 cumulative IPC: 0.37799 (Simulation time: 0 hr 5 min 42 sec) 
Heartbeat CPU  0 instructions:  221000001 cycles:  426721591 heartbeat IPC: 0.36376 cumulative IPC: 0.37786 (Simulation time: 0 hr 5 min 44 sec) 
Heartbeat CPU  0 instructions:  222000001 cycles:  429476454 heartbeat IPC: 0.36299 cumulative IPC: 0.37774 (Simulation time: 0 hr 5 min 46 sec) 
Heartbeat CPU  0 instructions:  223000002 cycles:  432241153 heartbeat IPC: 0.36170 cumulative IPC: 0.37760 (Simulation time: 0 hr 5 min 47 sec) 
Heartbeat CPU  0 instructions:  224000000 cycles:  435010802 heartbeat IPC: 0.36106 cumulative IPC: 0.37746 (Simulation time: 0 hr 5 min 49 sec) 
Heartbeat CPU  0 instructions:  225000000 cycles:  437765555 heartbeat IPC: 0.36301 cumulative IPC: 0.37734 (Simulation time: 0 hr 5 min 51 sec) 
Heartbeat CPU  0 instructions:  226000001 cycles:  440554726 heartbeat IPC: 0.35853 cumulative IPC: 0.37718 (Simulation time: 0 hr 5 min 53 sec) 
Heartbeat CPU  0 instructions:  227000000 cycles:  443262072 heartbeat IPC: 0.36937 cumulative IPC: 0.37712 (Simulation time: 0 hr 5 min 55 sec) 
Heartbeat CPU  0 instructions:  228000000 cycles:  445978574 heartbeat IPC: 0.36812 cumulative IPC: 0.37705 (Simulation time: 0 hr 5 min 57 sec) 
Heartbeat CPU  0 instructions:  229000000 cycles:  448311943 heartbeat IPC: 0.42856 cumulative IPC: 0.37740 (Simulation time: 0 hr 5 min 59 sec) 
Heartbeat CPU  0 instructions:  230000000 cycles:  450356686 heartbeat IPC: 0.48906 cumulative IPC: 0.37806 (Simulation time: 0 hr 6 min 0 sec) 
Heartbeat CPU  0 instructions:  231000001 cycles:  453110684 heartbeat IPC: 0.36311 cumulative IPC: 0.37795 (Simulation time: 0 hr 6 min 2 sec) 
Heartbeat CPU  0 instructions:  232000000 cycles:  455589287 heartbeat IPC: 0.40345 cumulative IPC: 0.37813 (Simulation time: 0 hr 6 min 4 sec) 
Heartbeat CPU  0 instructions:  233000002 cycles:  458117268 heartbeat IPC: 0.39557 cumulative IPC: 0.37825 (Simulation time: 0 hr 6 min 6 sec) 
Heartbeat CPU  0 instructions:  234000002 cycles:  460797065 heartbeat IPC: 0.37316 cumulative IPC: 0.37821 (Simulation time: 0 hr 6 min 8 sec) 
Heartbeat CPU  0 instructions:  235000002 cycles:  463503463 heartbeat IPC: 0.36949 cumulative IPC: 0.37815 (Simulation time: 0 hr 6 min 10 sec) 
Heartbeat CPU  0 instructions:  236000000 cycles:  466124105 heartbeat IPC: 0.38159 cumulative IPC: 0.37817 (Simulation time: 0 hr 6 min 11 sec) 
Heartbeat CPU  0 instructions:  237000001 cycles:  468774326 heartbeat IPC: 0.37733 cumulative IPC: 0.37817 (Simulation time: 0 hr 6 min 13 sec) 
Heartbeat CPU  0 instructions:  238000002 cycles:  471543993 heartbeat IPC: 0.36105 cumulative IPC: 0.37804 (Simulation time: 0 hr 6 min 15 sec) 
Heartbeat CPU  0 instructions:  239000000 cycles:  474141361 heartbeat IPC: 0.38500 cumulative IPC: 0.37809 (Simulation time: 0 hr 6 min 17 sec) 
Heartbeat CPU  0 instructions:  240000000 cycles:  476894467 heartbeat IPC: 0.36323 cumulative IPC: 0.37798 (Simulation time: 0 hr 6 min 19 sec) 
Heartbeat CPU  0 instructions:  241000001 cycles:  479676760 heartbeat IPC: 0.35942 cumulative IPC: 0.37784 (Simulation time: 0 hr 6 min 21 sec) 
Heartbeat CPU  0 instructions:  242000000 cycles:  482351100 heartbeat IPC: 0.37392 cumulative IPC: 0.37781 (Simulation time: 0 hr 6 min 23 sec) 
Heartbeat CPU  0 instructions:  243000002 cycles:  485142408 heartbeat IPC: 0.35826 cumulative IPC: 0.37767 (Simulation time: 0 hr 6 min 25 sec) 
Heartbeat CPU  0 instructions:  244000000 cycles:  487870634 heartbeat IPC: 0.36654 cumulative IPC: 0.37759 (Simulation time: 0 hr 6 min 26 sec) 
Heartbeat CPU  0 instructions:  245000001 cycles:  490508060 heartbeat IPC: 0.37916 cumulative IPC: 0.37760 (Simulation time: 0 hr 6 min 28 sec) 
Heartbeat CPU  0 instructions:  246000000 cycles:  492978291 heartbeat IPC: 0.40482 cumulative IPC: 0.37777 (Simulation time: 0 hr 6 min 30 sec) 
Heartbeat CPU  0 instructions:  247000001 cycles:  495731311 heartbeat IPC: 0.36324 cumulative IPC: 0.37767 (Simulation time: 0 hr 6 min 32 sec) 
Heartbeat CPU  0 instructions:  248000000 cycles:  498252702 heartbeat IPC: 0.39661 cumulative IPC: 0.37779 (Simulation time: 0 hr 6 min 34 sec) 
Heartbeat CPU  0 instructions:  249000000 cycles:  500930235 heartbeat IPC: 0.37348 cumulative IPC: 0.37776 (Simulation time: 0 hr 6 min 36 sec) 
Heartbeat CPU  0 instructions:  250000000 cycles:  503602606 heartbeat IPC: 0.37420 cumulative IPC: 0.37774 (Simulation time: 0 hr 6 min 38 sec) 
Heartbeat CPU  0 instructions:  251000000 cycles:  505950105 heartbeat IPC: 0.42599 cumulative IPC: 0.37802 (Simulation time: 0 hr 6 min 39 sec) 
Heartbeat CPU  0 instructions:  252000000 cycles:  508234091 heartbeat IPC: 0.43783 cumulative IPC: 0.37836 (Simulation time: 0 hr 6 min 41 sec) 
Heartbeat CPU  0 instructions:  253000001 cycles:  510661452 heartbeat IPC: 0.41197 cumulative IPC: 0.37856 (Simulation time: 0 hr 6 min 43 sec) 
Heartbeat CPU  0 instructions:  254000000 cycles:  513259440 heartbeat IPC: 0.38491 cumulative IPC: 0.37860 (Simulation time: 0 hr 6 min 45 sec) 
Heartbeat CPU  0 instructions:  255000001 cycles:  515641095 heartbeat IPC: 0.41988 cumulative IPC: 0.37884 (Simulation time: 0 hr 6 min 47 sec) 
Heartbeat CPU  0 instructions:  256000000 cycles:  518426624 heartbeat IPC: 0.35900 cumulative IPC: 0.37871 (Simulation time: 0 hr 6 min 49 sec) 
Heartbeat CPU  0 instructions:  257000002 cycles:  521221665 heartbeat IPC: 0.35778 cumulative IPC: 0.37857 (Simulation time: 0 hr 6 min 51 sec) 
Heartbeat CPU  0 instructions:  258000001 cycles:  523944180 heartbeat IPC: 0.36731 cumulative IPC: 0.37849 (Simulation time: 0 hr 6 min 52 sec) 
Heartbeat CPU  0 instructions:  259000000 cycles:  526618669 heartbeat IPC: 0.37390 cumulative IPC: 0.37846 (Simulation time: 0 hr 6 min 54 sec) 
Heartbeat CPU  0 instructions:  260000000 cycles:  529300364 heartbeat IPC: 0.37290 cumulative IPC: 0.37843 (Simulation time: 0 hr 6 min 56 sec) 
Heartbeat CPU  0 instructions:  261000001 cycles:  532092732 heartbeat IPC: 0.35812 cumulative IPC: 0.37830 (Simulation time: 0 hr 6 min 58 sec) 
Heartbeat CPU  0 instructions:  262000003 cycles:  534734563 heartbeat IPC: 0.37853 cumulative IPC: 0.37830 (Simulation time: 0 hr 7 min 0 sec) 
Heartbeat CPU  0 instructions:  263000002 cycles:  537519291 heartbeat IPC: 0.35910 cumulative IPC: 0.37817 (Simulation time: 0 hr 7 min 2 sec) 
Heartbeat CPU  0 instructions:  264000000 cycles:  540133964 heartbeat IPC: 0.38246 cumulative IPC: 0.37820 (Simulation time: 0 hr 7 min 4 sec) 
Heartbeat CPU  0 instructions:  265000000 cycles:  542864873 heartbeat IPC: 0.36618 cumulative IPC: 0.37812 (Simulation time: 0 hr 7 min 6 sec) 
Heartbeat CPU  0 instructions:  266000001 cycles:  545672057 heartbeat IPC: 0.35623 cumulative IPC: 0.37798 (Simulation time: 0 hr 7 min 8 sec) 
Heartbeat CPU  0 instructions:  267000003 cycles:  548369047 heartbeat IPC: 0.37078 cumulative IPC: 0.37794 (Simulation time: 0 hr 7 min 9 sec) 
Heartbeat CPU  0 instructions:  268000000 cycles:  551129810 heartbeat IPC: 0.36222 cumulative IPC: 0.37784 (Simulation time: 0 hr 7 min 11 sec) 
Heartbeat CPU  0 instructions:  269000001 cycles:  553862426 heartbeat IPC: 0.36595 cumulative IPC: 0.37777 (Simulation time: 0 hr 7 min 13 sec) 
Heartbeat CPU  0 instructions:  270000000 cycles:  556720317 heartbeat IPC: 0.34991 cumulative IPC: 0.37759 (Simulation time: 0 hr 7 min 15 sec) 
Heartbeat CPU  0 instructions:  271000000 cycles:  559435649 heartbeat IPC: 0.36828 cumulative IPC: 0.37754 (Simulation time: 0 hr 7 min 17 sec) 
Heartbeat CPU  0 instructions:  272000000 cycles:  562141913 heartbeat IPC: 0.36951 cumulative IPC: 0.37749 (Simulation time: 0 hr 7 min 19 sec) 
Heartbeat CPU  0 instructions:  273000001 cycles:  564521147 heartbeat IPC: 0.42030 cumulative IPC: 0.37771 (Simulation time: 0 hr 7 min 21 sec) 
Heartbeat CPU  0 instructions:  274000000 cycles:  566765151 heartbeat IPC: 0.44563 cumulative IPC: 0.37804 (Simulation time: 0 hr 7 min 22 sec) 
Heartbeat CPU  0 instructions:  275000001 cycles:  569221134 heartbeat IPC: 0.40717 cumulative IPC: 0.37820 (Simulation time: 0 hr 7 min 24 sec) 
Heartbeat CPU  0 instructions:  276000000 cycles:  571844461 heartbeat IPC: 0.38119 cumulative IPC: 0.37821 (Simulation time: 0 hr 7 min 26 sec) 
Heartbeat CPU  0 instructions:  277000000 cycles:  574615137 heartbeat IPC: 0.36092 cumulative IPC: 0.37811 (Simulation time: 0 hr 7 min 28 sec) 
Heartbeat CPU  0 instructions:  278000001 cycles:  577447995 heartbeat IPC: 0.35300 cumulative IPC: 0.37796 (Simulation time: 0 hr 7 min 30 sec) 
Heartbeat CPU  0 instructions:  279000002 cycles:  580186426 heartbeat IPC: 0.36517 cumulative IPC: 0.37789 (Simulation time: 0 hr 7 min 32 sec) 
Heartbeat CPU  0 instructions:  280000000 cycles:  582862227 heartbeat IPC: 0.37372 cumulative IPC: 0.37786 (Simulation time: 0 hr 7 min 33 sec) 
Heartbeat CPU  0 instructions:  281000000 cycles:  585568657 heartbeat IPC: 0.36949 cumulative IPC: 0.37782 (Simulation time: 0 hr 7 min 35 sec) 
Heartbeat CPU  0 instructions:  282000003 cycles:  588347347 heartbeat IPC: 0.35988 cumulative IPC: 0.37771 (Simulation time: 0 hr 7 min 37 sec) 
Heartbeat CPU  0 instructions:  283000003 cycles:  591056797 heartbeat IPC: 0.36908 cumulative IPC: 0.37767 (Simulation time: 0 hr 7 min 39 sec) 
Heartbeat CPU  0 instructions:  284000000 cycles:  593668118 heartbeat IPC: 0.38295 cumulative IPC: 0.37769 (Simulation time: 0 hr 7 min 41 sec) 
Heartbeat CPU  0 instructions:  285000001 cycles:  596450109 heartbeat IPC: 0.35946 cumulative IPC: 0.37759 (Simulation time: 0 hr 7 min 43 sec) 
Heartbeat CPU  0 instructions:  286000003 cycles:  599114428 heartbeat IPC: 0.37533 cumulative IPC: 0.37758 (Simulation time: 0 hr 7 min 45 sec) 
Heartbeat CPU  0 instructions:  287000000 cycles:  601840192 heartbeat IPC: 0.36687 cumulative IPC: 0.37752 (Simulation time: 0 hr 7 min 47 sec) 
Heartbeat CPU  0 instructions:  288000000 cycles:  604608179 heartbeat IPC: 0.36127 cumulative IPC: 0.37743 (Simulation time: 0 hr 7 min 48 sec) 
Heartbeat CPU  0 instructions:  289000000 cycles:  607316829 heartbeat IPC: 0.36919 cumulative IPC: 0.37738 (Simulation time: 0 hr 7 min 50 sec) 
Heartbeat CPU  0 instructions:  290000000 cycles:  610116996 heartbeat IPC: 0.35712 cumulative IPC: 0.37727 (Simulation time: 0 hr 7 min 52 sec) 
Heartbeat CPU  0 instructions:  291000000 cycles:  612840627 heartbeat IPC: 0.36716 cumulative IPC: 0.37722 (Simulation time: 0 hr 7 min 54 sec) 
Heartbeat CPU  0 instructions:  292000000 cycles:  615521995 heartbeat IPC: 0.37294 cumulative IPC: 0.37719 (Simulation time: 0 hr 7 min 56 sec) 
Heartbeat CPU  0 instructions:  293000002 cycles:  618332439 heartbeat IPC: 0.35582 cumulative IPC: 0.37708 (Simulation time: 0 hr 7 min 58 sec) 
Heartbeat CPU  0 instructions:  294000003 cycles:  621025185 heartbeat IPC: 0.37137 cumulative IPC: 0.37705 (Simulation time: 0 hr 8 min 0 sec) 
Heartbeat CPU  0 instructions:  295000003 cycles:  623774737 heartbeat IPC: 0.36370 cumulative IPC: 0.37698 (Simulation time: 0 hr 8 min 2 sec) 
Heartbeat CPU  0 instructions:  296000000 cycles:  626382742 heartbeat IPC: 0.38343 cumulative IPC: 0.37701 (Simulation time: 0 hr 8 min 3 sec) 
Heartbeat CPU  0 instructions:  297000001 cycles:  628514782 heartbeat IPC: 0.46903 cumulative IPC: 0.37738 (Simulation time: 0 hr 8 min 5 sec) 
Heartbeat CPU  0 instructions:  298000000 cycles:  630905858 heartbeat IPC: 0.41822 cumulative IPC: 0.37757 (Simulation time: 0 hr 8 min 7 sec) 
Heartbeat CPU  0 instructions:  299000000 cycles:  633535426 heartbeat IPC: 0.38029 cumulative IPC: 0.37758 (Simulation time: 0 hr 8 min 9 sec) 
Heartbeat CPU  0 instructions:  300000000 cycles:  636037211 heartbeat IPC: 0.39971 cumulative IPC: 0.37769 (Simulation time: 0 hr 8 min 11 sec) 
Heartbeat CPU  0 instructions:  301000001 cycles:  638523487 heartbeat IPC: 0.40221 cumulative IPC: 0.37780 (Simulation time: 0 hr 8 min 12 sec) 
Heartbeat CPU  0 instructions:  302000000 cycles:  641100322 heartbeat IPC: 0.38807 cumulative IPC: 0.37785 (Simulation time: 0 hr 8 min 14 sec) 
Heartbeat CPU  0 instructions:  303000003 cycles:  643836183 heartbeat IPC: 0.36552 cumulative IPC: 0.37779 (Simulation time: 0 hr 8 min 16 sec) 
Heartbeat CPU  0 instructions:  304000000 cycles:  646494986 heartbeat IPC: 0.37611 cumulative IPC: 0.37778 (Simulation time: 0 hr 8 min 18 sec) 
Heartbeat CPU  0 instructions:  305000000 cycles:  649214881 heartbeat IPC: 0.36766 cumulative IPC: 0.37773 (Simulation time: 0 hr 8 min 20 sec) 
Heartbeat CPU  0 instructions:  306000002 cycles:  652040117 heartbeat IPC: 0.35395 cumulative IPC: 0.37761 (Simulation time: 0 hr 8 min 22 sec) 
Heartbeat CPU  0 instructions:  307000000 cycles:  654764351 heartbeat IPC: 0.36707 cumulative IPC: 0.37756 (Simulation time: 0 hr 8 min 24 sec) 
Heartbeat CPU  0 instructions:  308000000 cycles:  657446837 heartbeat IPC: 0.37279 cumulative IPC: 0.37753 (Simulation time: 0 hr 8 min 26 sec) 
Heartbeat CPU  0 instructions:  309000000 cycles:  660142683 heartbeat IPC: 0.37094 cumulative IPC: 0.37750 (Simulation time: 0 hr 8 min 28 sec) 
Heartbeat CPU  0 instructions:  310000000 cycles:  662887538 heartbeat IPC: 0.36432 cumulative IPC: 0.37744 (Simulation time: 0 hr 8 min 29 sec) 
Heartbeat CPU  0 instructions:  311000003 cycles:  665600685 heartbeat IPC: 0.36858 cumulative IPC: 0.37739 (Simulation time: 0 hr 8 min 31 sec) 
Heartbeat CPU  0 instructions:  312000000 cycles:  668214821 heartbeat IPC: 0.38253 cumulative IPC: 0.37742 (Simulation time: 0 hr 8 min 33 sec) 
Heartbeat CPU  0 instructions:  313000000 cycles:  670962670 heartbeat IPC: 0.36392 cumulative IPC: 0.37735 (Simulation time: 0 hr 8 min 35 sec) 
Heartbeat CPU  0 instructions:  314000002 cycles:  673654314 heartbeat IPC: 0.37152 cumulative IPC: 0.37732 (Simulation time: 0 hr 8 min 37 sec) 
Heartbeat CPU  0 instructions:  315000002 cycles:  676323740 heartbeat IPC: 0.37461 cumulative IPC: 0.37731 (Simulation time: 0 hr 8 min 39 sec) 
Heartbeat CPU  0 instructions:  316000000 cycles:  679065678 heartbeat IPC: 0.36470 cumulative IPC: 0.37725 (Simulation time: 0 hr 8 min 41 sec) 
Heartbeat CPU  0 instructions:  317000001 cycles:  681815064 heartbeat IPC: 0.36372 cumulative IPC: 0.37718 (Simulation time: 0 hr 8 min 43 sec) 
Heartbeat CPU  0 instructions:  318000000 cycles:  684570709 heartbeat IPC: 0.36289 cumulative IPC: 0.37712 (Simulation time: 0 hr 8 min 44 sec) 
Heartbeat CPU  0 instructions:  319000000 cycles:  687312879 heartbeat IPC: 0.36467 cumulative IPC: 0.37706 (Simulation time: 0 hr 8 min 46 sec) 
Heartbeat CPU  0 instructions:  320000000 cycles:  689989457 heartbeat IPC: 0.37361 cumulative IPC: 0.37704 (Simulation time: 0 hr 8 min 48 sec) 
Heartbeat CPU  0 instructions:  321000003 cycles:  692518636 heartbeat IPC: 0.39539 cumulative IPC: 0.37712 (Simulation time: 0 hr 8 min 50 sec) 
Heartbeat CPU  0 instructions:  322000002 cycles:  695004304 heartbeat IPC: 0.40231 cumulative IPC: 0.37723 (Simulation time: 0 hr 8 min 52 sec) 
Heartbeat CPU  0 instructions:  323000000 cycles:  697122949 heartbeat IPC: 0.47200 cumulative IPC: 0.37757 (Simulation time: 0 hr 8 min 53 sec) 
Heartbeat CPU  0 instructions:  324000000 cycles:  699520338 heartbeat IPC: 0.41712 cumulative IPC: 0.37773 (Simulation time: 0 hr 8 min 55 sec) 
Heartbeat CPU  0 instructions:  325000000 cycles:  702148206 heartbeat IPC: 0.38054 cumulative IPC: 0.37774 (Simulation time: 0 hr 8 min 57 sec) 
Heartbeat CPU  0 instructions:  326000000 cycles:  704769891 heartbeat IPC: 0.38143 cumulative IPC: 0.37776 (Simulation time: 0 hr 8 min 59 sec) 
Heartbeat CPU  0 instructions:  327000002 cycles:  707456243 heartbeat IPC: 0.37225 cumulative IPC: 0.37773 (Simulation time: 0 hr 9 min 1 sec) 
Heartbeat CPU  0 instructions:  328000000 cycles:  710084145 heartbeat IPC: 0.38053 cumulative IPC: 0.37774 (Simulation time: 0 hr 9 min 3 sec) 
Heartbeat CPU  0 instructions:  329000001 cycles:  712789310 heartbeat IPC: 0.36966 cumulative IPC: 0.37771 (Simulation time: 0 hr 9 min 5 sec) 
Heartbeat CPU  0 instructions:  330000000 cycles:  715595275 heartbeat IPC: 0.35638 cumulative IPC: 0.37761 (Simulation time: 0 hr 9 min 7 sec) 
Heartbeat CPU  0 instructions:  331000000 cycles:  718404635 heartbeat IPC: 0.35595 cumulative IPC: 0.37751 (Simulation time: 0 hr 9 min 8 sec) 
Heartbeat CPU  0 instructions:  332000000 cycles:  721061089 heartbeat IPC: 0.37644 cumulative IPC: 0.37751 (Simulation time: 0 hr 9 min 10 sec) 
Heartbeat CPU  0 instructions:  333000000 cycles:  723718869 heartbeat IPC: 0.37625 cumulative IPC: 0.37750 (Simulation time: 0 hr 9 min 12 sec) 
Heartbeat CPU  0 instructions:  334000001 cycles:  726463679 heartbeat IPC: 0.36432 cumulative IPC: 0.37744 (Simulation time: 0 hr 9 min 14 sec) 
Heartbeat CPU  0 instructions:  335000003 cycles:  729200835 heartbeat IPC: 0.36534 cumulative IPC: 0.37739 (Simulation time: 0 hr 9 min 16 sec) 
Heartbeat CPU  0 instructions:  336000000 cycles:  731852874 heartbeat IPC: 0.37707 cumulative IPC: 0.37739 (Simulation time: 0 hr 9 min 18 sec) 
Heartbeat CPU  0 instructions:  337000000 cycles:  734557381 heartbeat IPC: 0.36975 cumulative IPC: 0.37735 (Simulation time: 0 hr 9 min 20 sec) 
Heartbeat CPU  0 instructions:  338000000 cycles:  737297277 heartbeat IPC: 0.36498 cumulative IPC: 0.37730 (Simulation time: 0 hr 9 min 22 sec) 
Heartbeat CPU  0 instructions:  339000000 cycles:  739935332 heartbeat IPC: 0.37907 cumulative IPC: 0.37731 (Simulation time: 0 hr 9 min 23 sec) 
Heartbeat CPU  0 instructions:  340000000 cycles:  742664336 heartbeat IPC: 0.36643 cumulative IPC: 0.37726 (Simulation time: 0 hr 9 min 25 sec) 
Heartbeat CPU  0 instructions:  341000002 cycles:  745467824 heartbeat IPC: 0.35670 cumulative IPC: 0.37717 (Simulation time: 0 hr 9 min 27 sec) 
Heartbeat CPU  0 instructions:  342000000 cycles:  748166142 heartbeat IPC: 0.37060 cumulative IPC: 0.37714 (Simulation time: 0 hr 9 min 29 sec) 
Heartbeat CPU  0 instructions:  343000000 cycles:  750939596 heartbeat IPC: 0.36056 cumulative IPC: 0.37707 (Simulation time: 0 hr 9 min 31 sec) 
Heartbeat CPU  0 instructions:  344000000 cycles:  753650930 heartbeat IPC: 0.36882 cumulative IPC: 0.37704 (Simulation time: 0 hr 9 min 33 sec) 
Heartbeat CPU  0 instructions:  345000000 cycles:  756182420 heartbeat IPC: 0.39502 cumulative IPC: 0.37711 (Simulation time: 0 hr 9 min 35 sec) 
Heartbeat CPU  0 instructions:  346000001 cycles:  758768546 heartbeat IPC: 0.38668 cumulative IPC: 0.37715 (Simulation time: 0 hr 9 min 37 sec) 
Heartbeat CPU  0 instructions:  347000000 cycles:  760834343 heartbeat IPC: 0.48407 cumulative IPC: 0.37748 (Simulation time: 0 hr 9 min 38 sec) 
Heartbeat CPU  0 instructions:  348000000 cycles:  763095399 heartbeat IPC: 0.44227 cumulative IPC: 0.37771 (Simulation time: 0 hr 9 min 40 sec) 
Heartbeat CPU  0 instructions:  349000003 cycles:  765770736 heartbeat IPC: 0.37379 cumulative IPC: 0.37769 (Simulation time: 0 hr 9 min 42 sec) 
Heartbeat CPU  0 instructions:  350000002 cycles:  768440113 heartbeat IPC: 0.37462 cumulative IPC: 0.37768 (Simulation time: 0 hr 9 min 44 sec) 
Heartbeat CPU  0 instructions:  351000001 cycles:  771065335 heartbeat IPC: 0.38092 cumulative IPC: 0.37769 (Simulation time: 0 hr 9 min 46 sec) 
Heartbeat CPU  0 instructions:  352000000 cycles:  773778385 heartbeat IPC: 0.36859 cumulative IPC: 0.37765 (Simulation time: 0 hr 9 min 47 sec) 
Heartbeat CPU  0 instructions:  353000000 cycles:  776587387 heartbeat IPC: 0.35600 cumulative IPC: 0.37756 (Simulation time: 0 hr 9 min 49 sec) 
Heartbeat CPU  0 instructions:  354000001 cycles:  779322823 heartbeat IPC: 0.36557 cumulative IPC: 0.37751 (Simulation time: 0 hr 9 min 51 sec) 
Heartbeat CPU  0 instructions:  355000002 cycles:  782030984 heartbeat IPC: 0.36925 cumulative IPC: 0.37748 (Simulation time: 0 hr 9 min 53 sec) 
Heartbeat CPU  0 instructions:  356000000 cycles:  784673121 heartbeat IPC: 0.37848 cumulative IPC: 0.37748 (Simulation time: 0 hr 9 min 55 sec) 
Heartbeat CPU  0 instructions:  357000000 cycles:  787408375 heartbeat IPC: 0.36560 cumulative IPC: 0.37744 (Simulation time: 0 hr 9 min 57 sec) 
Heartbeat CPU  0 instructions:  358000000 cycles:  790050964 heartbeat IPC: 0.37842 cumulative IPC: 0.37744 (Simulation time: 0 hr 9 min 59 sec) 
Heartbeat CPU  0 instructions:  359000001 cycles:  792734341 heartbeat IPC: 0.37267 cumulative IPC: 0.37742 (Simulation time: 0 hr 10 min 1 sec) 
Heartbeat CPU  0 instructions:  360000000 cycles:  795476555 heartbeat IPC: 0.36467 cumulative IPC: 0.37737 (Simulation time: 0 hr 10 min 3 sec) 
Heartbeat CPU  0 instructions:  361000002 cycles:  798119193 heartbeat IPC: 0.37841 cumulative IPC: 0.37738 (Simulation time: 0 hr 10 min 4 sec) 
Heartbeat CPU  0 instructions:  362000000 cycles:  800883738 heartbeat IPC: 0.36172 cumulative IPC: 0.37731 (Simulation time: 0 hr 10 min 6 sec) 
Heartbeat CPU  0 instructions:  363000000 cycles:  803633951 heartbeat IPC: 0.36361 cumulative IPC: 0.37726 (Simulation time: 0 hr 10 min 8 sec) 
Heartbeat CPU  0 instructions:  364000000 cycles:  806362238 heartbeat IPC: 0.36653 cumulative IPC: 0.37722 (Simulation time: 0 hr 10 min 10 sec) 
Heartbeat CPU  0 instructions:  365000001 cycles:  809102819 heartbeat IPC: 0.36489 cumulative IPC: 0.37717 (Simulation time: 0 hr 10 min 12 sec) 
Heartbeat CPU  0 instructions:  366000000 cycles:  811834726 heartbeat IPC: 0.36604 cumulative IPC: 0.37713 (Simulation time: 0 hr 10 min 14 sec) 
Heartbeat CPU  0 instructions:  367000000 cycles:  814375670 heartbeat IPC: 0.39355 cumulative IPC: 0.37719 (Simulation time: 0 hr 10 min 16 sec) 
Heartbeat CPU  0 instructions:  368000000 cycles:  816948213 heartbeat IPC: 0.38872 cumulative IPC: 0.37723 (Simulation time: 0 hr 10 min 18 sec) 
Heartbeat CPU  0 instructions:  369000000 cycles:  819023668 heartbeat IPC: 0.48182 cumulative IPC: 0.37753 (Simulation time: 0 hr 10 min 19 sec) 
Heartbeat CPU  0 instructions:  370000000 cycles:  821240338 heartbeat IPC: 0.45113 cumulative IPC: 0.37776 (Simulation time: 0 hr 10 min 21 sec) 
Heartbeat CPU  0 instructions:  371000000 cycles:  823878830 heartbeat IPC: 0.37900 cumulative IPC: 0.37776 (Simulation time: 0 hr 10 min 23 sec) 
Heartbeat CPU  0 instructions:  372000000 cycles:  826727080 heartbeat IPC: 0.35109 cumulative IPC: 0.37766 (Simulation time: 0 hr 10 min 25 sec) 
Heartbeat CPU  0 instructions:  373000000 cycles:  829436618 heartbeat IPC: 0.36907 cumulative IPC: 0.37763 (Simulation time: 0 hr 10 min 27 sec) 
Heartbeat CPU  0 instructions:  374000003 cycles:  832111246 heartbeat IPC: 0.37388 cumulative IPC: 0.37761 (Simulation time: 0 hr 10 min 29 sec) 
Heartbeat CPU  0 instructions:  375000000 cycles:  834755403 heartbeat IPC: 0.37819 cumulative IPC: 0.37761 (Simulation time: 0 hr 10 min 30 sec) 
Heartbeat CPU  0 instructions:  376000000 cycles:  837511114 heartbeat IPC: 0.36288 cumulative IPC: 0.37756 (Simulation time: 0 hr 10 min 32 sec) 
Heartbeat CPU  0 instructions:  377000003 cycles:  840165675 heartbeat IPC: 0.37671 cumulative IPC: 0.37756 (Simulation time: 0 hr 10 min 34 sec) 
Heartbeat CPU  0 instructions:  378000000 cycles:  842849079 heartbeat IPC: 0.37266 cumulative IPC: 0.37754 (Simulation time: 0 hr 10 min 36 sec) 
Heartbeat CPU  0 instructions:  379000002 cycles:  845618526 heartbeat IPC: 0.36108 cumulative IPC: 0.37748 (Simulation time: 0 hr 10 min 38 sec) 
Heartbeat CPU  0 instructions:  380000000 cycles:  848286923 heartbeat IPC: 0.37476 cumulative IPC: 0.37747 (Simulation time: 0 hr 10 min 40 sec) 
Heartbeat CPU  0 instructions:  381000000 cycles:  851078356 heartbeat IPC: 0.35824 cumulative IPC: 0.37740 (Simulation time: 0 hr 10 min 42 sec) 
Heartbeat CPU  0 instructions:  382000001 cycles:  853797955 heartbeat IPC: 0.36770 cumulative IPC: 0.37736 (Simulation time: 0 hr 10 min 43 sec) 
Heartbeat CPU  0 instructions:  383000002 cycles:  856449533 heartbeat IPC: 0.37713 cumulative IPC: 0.37736 (Simulation time: 0 hr 10 min 45 sec) 
Heartbeat CPU  0 instructions:  384000000 cycles:  858548286 heartbeat IPC: 0.47647 cumulative IPC: 0.37764 (Simulation time: 0 hr 10 min 47 sec) 
Heartbeat CPU  0 instructions:  385000000 cycles:  860644922 heartbeat IPC: 0.47695 cumulative IPC: 0.37791 (Simulation time: 0 hr 10 min 49 sec) 
Heartbeat CPU  0 instructions:  386000002 cycles:  863359117 heartbeat IPC: 0.36843 cumulative IPC: 0.37788 (Simulation time: 0 hr 10 min 51 sec) 
Heartbeat CPU  0 instructions:  387000001 cycles:  865979828 heartbeat IPC: 0.38158 cumulative IPC: 0.37789 (Simulation time: 0 hr 10 min 52 sec) 
Heartbeat CPU  0 instructions:  388000000 cycles:  868706741 heartbeat IPC: 0.36671 cumulative IPC: 0.37785 (Simulation time: 0 hr 10 min 54 sec) 
Heartbeat CPU  0 instructions:  389000000 cycles:  871393920 heartbeat IPC: 0.37214 cumulative IPC: 0.37783 (Simulation time: 0 hr 10 min 56 sec) 
Heartbeat CPU  0 instructions:  390000000 cycles:  874066740 heartbeat IPC: 0.37414 cumulative IPC: 0.37782 (Simulation time: 0 hr 10 min 58 sec) 
Heartbeat CPU  0 instructions:  391000001 cycles:  876762029 heartbeat IPC: 0.37102 cumulative IPC: 0.37779 (Simulation time: 0 hr 11 min 0 sec) 
Heartbeat CPU  0 instructions:  392000000 cycles:  879492716 heartbeat IPC: 0.36621 cumulative IPC: 0.37775 (Simulation time: 0 hr 11 min 2 sec) 
Heartbeat CPU  0 instructions:  393000000 cycles:  882203705 heartbeat IPC: 0.36887 cumulative IPC: 0.37772 (Simulation time: 0 hr 11 min 4 sec) 
Heartbeat CPU  0 instructions:  394000002 cycles:  884803608 heartbeat IPC: 0.38463 cumulative IPC: 0.37774 (Simulation time: 0 hr 11 min 5 sec) 
Heartbeat CPU  0 instructions:  395000002 cycles:  887583799 heartbeat IPC: 0.35969 cumulative IPC: 0.37768 (Simulation time: 0 hr 11 min 7 sec) 
Heartbeat CPU  0 instructions:  396000000 cycles:  890224556 heartbeat IPC: 0.37868 cumulative IPC: 0.37768 (Simulation time: 0 hr 11 min 9 sec) 
Heartbeat CPU  0 instructions:  397000000 cycles:  892936592 heartbeat IPC: 0.36873 cumulative IPC: 0.37765 (Simulation time: 0 hr 11 min 11 sec) 
Heartbeat CPU  0 instructions:  398000001 cycles:  895688879 heartbeat IPC: 0.36333 cumulative IPC: 0.37760 (Simulation time: 0 hr 11 min 13 sec) 
Heartbeat CPU  0 instructions:  399000002 cycles:  898432686 heartbeat IPC: 0.36446 cumulative IPC: 0.37756 (Simulation time: 0 hr 11 min 15 sec) 
Heartbeat CPU  0 instructions:  400000000 cycles:  901212922 heartbeat IPC: 0.35968 cumulative IPC: 0.37749 (Simulation time: 0 hr 11 min 17 sec) 
Heartbeat CPU  0 instructions:  401000000 cycles:  903937917 heartbeat IPC: 0.36697 cumulative IPC: 0.37746 (Simulation time: 0 hr 11 min 19 sec) 
Heartbeat CPU  0 instructions:  402000000 cycles:  906634671 heartbeat IPC: 0.37082 cumulative IPC: 0.37744 (Simulation time: 0 hr 11 min 20 sec) 
Heartbeat CPU  0 instructions:  403000001 cycles:  909145690 heartbeat IPC: 0.39825 cumulative IPC: 0.37750 (Simulation time: 0 hr 11 min 22 sec) 
Heartbeat CPU  0 instructions:  404000000 cycles:  911653368 heartbeat IPC: 0.39877 cumulative IPC: 0.37757 (Simulation time: 0 hr 11 min 24 sec) 
Heartbeat CPU  0 instructions:  405000000 cycles:  913791532 heartbeat IPC: 0.46769 cumulative IPC: 0.37781 (Simulation time: 0 hr 11 min 26 sec) 
Heartbeat CPU  0 instructions:  406000002 cycles:  916144244 heartbeat IPC: 0.42504 cumulative IPC: 0.37794 (Simulation time: 0 hr 11 min 28 sec) 
Heartbeat CPU  0 instructions:  407000000 cycles:  918758756 heartbeat IPC: 0.38248 cumulative IPC: 0.37796 (Simulation time: 0 hr 11 min 29 sec) 
Heartbeat CPU  0 instructions:  408000000 cycles:  921492534 heartbeat IPC: 0.36579 cumulative IPC: 0.37792 (Simulation time: 0 hr 11 min 31 sec) 
Heartbeat CPU  0 instructions:  409000002 cycles:  924356242 heartbeat IPC: 0.34920 cumulative IPC: 0.37782 (Simulation time: 0 hr 11 min 33 sec) 
Heartbeat CPU  0 instructions:  410000001 cycles:  927073161 heartbeat IPC: 0.36806 cumulative IPC: 0.37778 (Simulation time: 0 hr 11 min 35 sec) 
Heartbeat CPU  0 instructions:  411000000 cycles:  929773368 heartbeat IPC: 0.37034 cumulative IPC: 0.37776 (Simulation time: 0 hr 11 min 37 sec) 
Heartbeat CPU  0 instructions:  412000000 cycles:  932400420 heartbeat IPC: 0.38065 cumulative IPC: 0.37777 (Simulation time: 0 hr 11 min 39 sec) 
Heartbeat CPU  0 instructions:  413000000 cycles:  935160714 heartbeat IPC: 0.36228 cumulative IPC: 0.37772 (Simulation time: 0 hr 11 min 41 sec) 
Heartbeat CPU  0 instructions:  414000000 cycles:  937801539 heartbeat IPC: 0.37867 cumulative IPC: 0.37772 (Simulation time: 0 hr 11 min 43 sec) 
Heartbeat CPU  0 instructions:  415000000 cycles:  940503795 heartbeat IPC: 0.37006 cumulative IPC: 0.37770 (Simulation time: 0 hr 11 min 44 sec) 
Heartbeat CPU  0 instructions:  416000000 cycles:  943250117 heartbeat IPC: 0.36412 cumulative IPC: 0.37765 (Simulation time: 0 hr 11 min 46 sec) 
Heartbeat CPU  0 instructions:  417000003 cycles:  945873267 heartbeat IPC: 0.38122 cumulative IPC: 0.37766 (Simulation time: 0 hr 11 min 48 sec) 
Heartbeat CPU  0 instructions:  418000000 cycles:  948636403 heartbeat IPC: 0.36191 cumulative IPC: 0.37761 (Simulation time: 0 hr 11 min 50 sec) 
Heartbeat CPU  0 instructions:  419000000 cycles:  951420818 heartbeat IPC: 0.35914 cumulative IPC: 0.37755 (Simulation time: 0 hr 11 min 52 sec) 
Heartbeat CPU  0 instructions:  420000000 cycles:  954131954 heartbeat IPC: 0.36885 cumulative IPC: 0.37752 (Simulation time: 0 hr 11 min 54 sec) 
Heartbeat CPU  0 instructions:  421000000 cycles:  956911569 heartbeat IPC: 0.35976 cumulative IPC: 0.37746 (Simulation time: 0 hr 11 min 56 sec) 
Heartbeat CPU  0 instructions:  422000001 cycles:  959607538 heartbeat IPC: 0.37092 cumulative IPC: 0.37744 (Simulation time: 0 hr 11 min 58 sec) 
Heartbeat CPU  0 instructions:  423000000 cycles:  962090370 heartbeat IPC: 0.40277 cumulative IPC: 0.37752 (Simulation time: 0 hr 11 min 59 sec) 
Heartbeat CPU  0 instructions:  424000000 cycles:  964059947 heartbeat IPC: 0.50772 cumulative IPC: 0.37782 (Simulation time: 0 hr 12 min 1 sec) 
Heartbeat CPU  0 instructions:  425000001 cycles:  966462105 heartbeat IPC: 0.41629 cumulative IPC: 0.37792 (Simulation time: 0 hr 12 min 3 sec) 
Heartbeat CPU  0 instructions:  426000001 cycles:  969103462 heartbeat IPC: 0.37859 cumulative IPC: 0.37793 (Simulation time: 0 hr 12 min 5 sec) 
Heartbeat CPU  0 instructions:  427000000 cycles:  971812781 heartbeat IPC: 0.36910 cumulative IPC: 0.37790 (Simulation time: 0 hr 12 min 7 sec) 
Heartbeat CPU  0 instructions:  428000000 cycles:  974640876 heartbeat IPC: 0.35359 cumulative IPC: 0.37782 (Simulation time: 0 hr 12 min 9 sec) 
Heartbeat CPU  0 instructions:  429000001 cycles:  977419644 heartbeat IPC: 0.35987 cumulative IPC: 0.37776 (Simulation time: 0 hr 12 min 10 sec) 
Heartbeat CPU  0 instructions:  430000001 cycles:  980107543 heartbeat IPC: 0.37204 cumulative IPC: 0.37774 (Simulation time: 0 hr 12 min 12 sec) 
Heartbeat CPU  0 instructions:  431000000 cycles:  982780641 heartbeat IPC: 0.37410 cumulative IPC: 0.37773 (Simulation time: 0 hr 12 min 14 sec) 
Heartbeat CPU  0 instructions:  432000000 cycles:  985501408 heartbeat IPC: 0.36754 cumulative IPC: 0.37770 (Simulation time: 0 hr 12 min 16 sec) 
Heartbeat CPU  0 instructions:  433000001 cycles:  988257350 heartbeat IPC: 0.36285 cumulative IPC: 0.37766 (Simulation time: 0 hr 12 min 18 sec) 
Heartbeat CPU  0 instructions:  434000001 cycles:  990897396 heartbeat IPC: 0.37878 cumulative IPC: 0.37766 (Simulation time: 0 hr 12 min 20 sec) 
Heartbeat CPU  0 instructions:  435000000 cycles:  993601869 heartbeat IPC: 0.36976 cumulative IPC: 0.37763 (Simulation time: 0 hr 12 min 22 sec) 
Heartbeat CPU  0 instructions:  436000000 cycles:  996347337 heartbeat IPC: 0.36424 cumulative IPC: 0.37759 (Simulation time: 0 hr 12 min 24 sec) 
Heartbeat CPU  0 instructions:  437000000 cycles:  998987294 heartbeat IPC: 0.37879 cumulative IPC: 0.37760 (Simulation time: 0 hr 12 min 25 sec) 
Heartbeat CPU  0 instructions:  438000000 cycles: 1001752911 heartbeat IPC: 0.36158 cumulative IPC: 0.37755 (Simulation time: 0 hr 12 min 27 sec) 
Heartbeat CPU  0 instructions:  439000003 cycles: 1004512011 heartbeat IPC: 0.36244 cumulative IPC: 0.37750 (Simulation time: 0 hr 12 min 29 sec) 
Heartbeat CPU  0 instructions:  440000000 cycles: 1007241821 heartbeat IPC: 0.36632 cumulative IPC: 0.37747 (Simulation time: 0 hr 12 min 31 sec) 
Heartbeat CPU  0 instructions:  441000001 cycles: 1009979177 heartbeat IPC: 0.36532 cumulative IPC: 0.37743 (Simulation time: 0 hr 12 min 33 sec) 
Heartbeat CPU  0 instructions:  442000000 cycles: 1012681566 heartbeat IPC: 0.37004 cumulative IPC: 0.37741 (Simulation time: 0 hr 12 min 35 sec) 
Heartbeat CPU  0 instructions:  443000002 cycles: 1015223634 heartbeat IPC: 0.39338 cumulative IPC: 0.37745 (Simulation time: 0 hr 12 min 37 sec) 
Heartbeat CPU  0 instructions:  444000000 cycles: 1017851944 heartbeat IPC: 0.38047 cumulative IPC: 0.37746 (Simulation time: 0 hr 12 min 39 sec) 
Heartbeat CPU  0 instructions:  445000000 cycles: 1020630657 heartbeat IPC: 0.35988 cumulative IPC: 0.37741 (Simulation time: 0 hr 12 min 40 sec) 
Heartbeat CPU  0 instructions:  446000003 cycles: 1023371698 heartbeat IPC: 0.36483 cumulative IPC: 0.37737 (Simulation time: 0 hr 12 min 42 sec) 
Heartbeat CPU  0 instructions:  447000002 cycles: 1026101885 heartbeat IPC: 0.36627 cumulative IPC: 0.37734 (Simulation time: 0 hr 12 min 44 sec) 
Heartbeat CPU  0 instructions:  448000000 cycles: 1028498407 heartbeat IPC: 0.41727 cumulative IPC: 0.37744 (Simulation time: 0 hr 12 min 46 sec) 
Heartbeat CPU  0 instructions:  449000000 cycles: 1030594450 heartbeat IPC: 0.47709 cumulative IPC: 0.37767 (Simulation time: 0 hr 12 min 48 sec) 
Heartbeat CPU  0 instructions:  450000000 cycles: 1033241268 heartbeat IPC: 0.37781 cumulative IPC: 0.37767 (Simulation time: 0 hr 12 min 49 sec) 
Heartbeat CPU  0 instructions:  451000000 cycles: 1035945825 heartbeat IPC: 0.36975 cumulative IPC: 0.37764 (Simulation time: 0 hr 12 min 51 sec) 
Heartbeat CPU  0 instructions:  452000000 cycles: 1038631225 heartbeat IPC: 0.37238 cumulative IPC: 0.37763 (Simulation time: 0 hr 12 min 53 sec) 
Heartbeat CPU  0 instructions:  453000000 cycles: 1041283451 heartbeat IPC: 0.37704 cumulative IPC: 0.37763 (Simulation time: 0 hr 12 min 55 sec) 
Heartbeat CPU  0 instructions:  454000001 cycles: 1043999958 heartbeat IPC: 0.36812 cumulative IPC: 0.37760 (Simulation time: 0 hr 12 min 57 sec) 
Heartbeat CPU  0 instructions:  455000000 cycles: 1046715029 heartbeat IPC: 0.36831 cumulative IPC: 0.37757 (Simulation time: 0 hr 12 min 59 sec) 
Heartbeat CPU  0 instructions:  456000000 cycles: 1049358169 heartbeat IPC: 0.37834 cumulative IPC: 0.37758 (Simulation time: 0 hr 13 min 1 sec) 
Heartbeat CPU  0 instructions:  457000003 cycles: 1052093575 heartbeat IPC: 0.36558 cumulative IPC: 0.37754 (Simulation time: 0 hr 13 min 3 sec) 
Heartbeat CPU  0 instructions:  458000003 cycles: 1054789749 heartbeat IPC: 0.37090 cumulative IPC: 0.37752 (Simulation time: 0 hr 13 min 4 sec) 
Heartbeat CPU  0 instructions:  459000001 cycles: 1057576093 heartbeat IPC: 0.35889 cumulative IPC: 0.37747 (Simulation time: 0 hr 13 min 6 sec) 
Heartbeat CPU  0 instructions:  460000000 cycles: 1060293035 heartbeat IPC: 0.36806 cumulative IPC: 0.37744 (Simulation time: 0 hr 13 min 8 sec) 
Heartbeat CPU  0 instructions:  461000002 cycles: 1062973414 heartbeat IPC: 0.37308 cumulative IPC: 0.37743 (Simulation time: 0 hr 13 min 10 sec) 
Heartbeat CPU  0 instructions:  462000003 cycles: 1065574274 heartbeat IPC: 0.38449 cumulative IPC: 0.37745 (Simulation time: 0 hr 13 min 12 sec) 
Heartbeat CPU  0 instructions:  463000001 cycles: 1067555279 heartbeat IPC: 0.50479 cumulative IPC: 0.37771 (Simulation time: 0 hr 13 min 13 sec) 
Heartbeat CPU  0 instructions:  464000000 cycles: 1070445971 heartbeat IPC: 0.34594 cumulative IPC: 0.37761 (Simulation time: 0 hr 13 min 15 sec) 
Heartbeat CPU  0 instructions:  465000001 cycles: 1073247115 heartbeat IPC: 0.35700 cumulative IPC: 0.37755 (Simulation time: 0 hr 13 min 17 sec) 
Heartbeat CPU  0 instructions:  466000000 cycles: 1075672174 heartbeat IPC: 0.41236 cumulative IPC: 0.37764 (Simulation time: 0 hr 13 min 19 sec) 
Heartbeat CPU  0 instructions:  467000000 cycles: 1078298878 heartbeat IPC: 0.38071 cumulative IPC: 0.37765 (Simulation time: 0 hr 13 min 21 sec) 
Heartbeat CPU  0 instructions:  468000000 cycles: 1080996679 heartbeat IPC: 0.37067 cumulative IPC: 0.37763 (Simulation time: 0 hr 13 min 23 sec) 
Heartbeat CPU  0 instructions:  469000001 cycles: 1083679824 heartbeat IPC: 0.37270 cumulative IPC: 0.37762 (Simulation time: 0 hr 13 min 25 sec) 
Heartbeat CPU  0 instructions:  470000001 cycles: 1086372540 heartbeat IPC: 0.37137 cumulative IPC: 0.37760 (Simulation time: 0 hr 13 min 26 sec) 
Heartbeat CPU  0 instructions:  471000000 cycles: 1088986189 heartbeat IPC: 0.38261 cumulative IPC: 0.37761 (Simulation time: 0 hr 13 min 28 sec) 
Heartbeat CPU  0 instructions:  472000000 cycles: 1091741195 heartbeat IPC: 0.36298 cumulative IPC: 0.37757 (Simulation time: 0 hr 13 min 30 sec) 
Heartbeat CPU  0 instructions:  473000002 cycles: 1094395819 heartbeat IPC: 0.37670 cumulative IPC: 0.37757 (Simulation time: 0 hr 13 min 32 sec) 
Heartbeat CPU  0 instructions:  474000001 cycles: 1097102051 heartbeat IPC: 0.36952 cumulative IPC: 0.37755 (Simulation time: 0 hr 13 min 34 sec) 
Heartbeat CPU  0 instructions:  475000002 cycles: 1099852357 heartbeat IPC: 0.36360 cumulative IPC: 0.37751 (Simulation time: 0 hr 13 min 36 sec) 
Heartbeat CPU  0 instructions:  476000000 cycles: 1102546415 heartbeat IPC: 0.37119 cumulative IPC: 0.37749 (Simulation time: 0 hr 13 min 38 sec) 
Heartbeat CPU  0 instructions:  477000001 cycles: 1105317062 heartbeat IPC: 0.36093 cumulative IPC: 0.37745 (Simulation time: 0 hr 13 min 40 sec) 
Heartbeat CPU  0 instructions:  478000001 cycles: 1108013366 heartbeat IPC: 0.37088 cumulative IPC: 0.37743 (Simulation time: 0 hr 13 min 41 sec) 
Heartbeat CPU  0 instructions:  479000002 cycles: 1110679304 heartbeat IPC: 0.37510 cumulative IPC: 0.37742 (Simulation time: 0 hr 13 min 43 sec) 
Heartbeat CPU  0 instructions:  480000000 cycles: 1113451014 heartbeat IPC: 0.36079 cumulative IPC: 0.37738 (Simulation time: 0 hr 13 min 45 sec) 
Heartbeat CPU  0 instructions:  481000000 cycles: 1116234246 heartbeat IPC: 0.35929 cumulative IPC: 0.37733 (Simulation time: 0 hr 13 min 47 sec) 
Heartbeat CPU  0 instructions:  482000002 cycles: 1118184742 heartbeat IPC: 0.51269 cumulative IPC: 0.37759 (Simulation time: 0 hr 13 min 49 sec) 
Heartbeat CPU  0 instructions:  483000003 cycles: 1120978831 heartbeat IPC: 0.35790 cumulative IPC: 0.37753 (Simulation time: 0 hr 13 min 50 sec) 
Heartbeat CPU  0 instructions:  484000000 cycles: 1123732197 heartbeat IPC: 0.36319 cumulative IPC: 0.37750 (Simulation time: 0 hr 13 min 52 sec) 
Heartbeat CPU  0 instructions:  485000001 cycles: 1126558717 heartbeat IPC: 0.35379 cumulative IPC: 0.37743 (Simulation time: 0 hr 13 min 54 sec) 
Heartbeat CPU  0 instructions:  486000000 cycles: 1129258108 heartbeat IPC: 0.37045 cumulative IPC: 0.37741 (Simulation time: 0 hr 13 min 56 sec) 
Heartbeat CPU  0 instructions:  487000002 cycles: 1131629401 heartbeat IPC: 0.42171 cumulative IPC: 0.37751 (Simulation time: 0 hr 13 min 58 sec) 
Heartbeat CPU  0 instructions:  488000000 cycles: 1134433437 heartbeat IPC: 0.35663 cumulative IPC: 0.37746 (Simulation time: 0 hr 14 min 0 sec) 
Heartbeat CPU  0 instructions:  489000001 cycles: 1137221576 heartbeat IPC: 0.35866 cumulative IPC: 0.37741 (Simulation time: 0 hr 14 min 2 sec) 
Heartbeat CPU  0 instructions:  490000001 cycles: 1139851454 heartbeat IPC: 0.38025 cumulative IPC: 0.37741 (Simulation time: 0 hr 14 min 3 sec) 
Heartbeat CPU  0 instructions:  491000001 cycles: 1142534696 heartbeat IPC: 0.37268 cumulative IPC: 0.37740 (Simulation time: 0 hr 14 min 5 sec) 
Heartbeat CPU  0 instructions:  492000000 cycles: 1145201089 heartbeat IPC: 0.37504 cumulative IPC: 0.37739 (Simulation time: 0 hr 14 min 7 sec) 
Heartbeat CPU  0 instructions:  493000000 cycles: 1147961321 heartbeat IPC: 0.36229 cumulative IPC: 0.37735 (Simulation time: 0 hr 14 min 9 sec) 
Heartbeat CPU  0 instructions:  494000000 cycles: 1150658284 heartbeat IPC: 0.37079 cumulative IPC: 0.37734 (Simulation time: 0 hr 14 min 11 sec) 
Heartbeat CPU  0 instructions:  495000000 cycles: 1153454725 heartbeat IPC: 0.35760 cumulative IPC: 0.37728 (Simulation time: 0 hr 14 min 13 sec) 
Heartbeat CPU  0 instructions:  496000000 cycles: 1156159506 heartbeat IPC: 0.36972 cumulative IPC: 0.37727 (Simulation time: 0 hr 14 min 15 sec) 
Heartbeat CPU  0 instructions:  497000000 cycles: 1158836684 heartbeat IPC: 0.37353 cumulative IPC: 0.37726 (Simulation time: 0 hr 14 min 17 sec) 
Heartbeat CPU  0 instructions:  498000001 cycles: 1161078628 heartbeat IPC: 0.44604 cumulative IPC: 0.37740 (Simulation time: 0 hr 14 min 18 sec) 
Heartbeat CPU  0 instructions:  499000001 cycles: 1163434404 heartbeat IPC: 0.42449 cumulative IPC: 0.37751 (Simulation time: 0 hr 14 min 20 sec) 
Heartbeat CPU  0 instructions:  500000000 cycles: 1165826005 heartbeat IPC: 0.41813 cumulative IPC: 0.37760 (Simulation time: 0 hr 14 min 22 sec) 
Heartbeat CPU  0 instructions:  501000001 cycles: 1168474170 heartbeat IPC: 0.37762 cumulative IPC: 0.37760 (Simulation time: 0 hr 14 min 24 sec) 
Heartbeat CPU  0 instructions:  502000003 cycles: 1171265725 heartbeat IPC: 0.35822 cumulative IPC: 0.37755 (Simulation time: 0 hr 14 min 26 sec) 
Heartbeat CPU  0 instructions:  503000000 cycles: 1172921321 heartbeat IPC: 0.60401 cumulative IPC: 0.37790 (Simulation time: 0 hr 14 min 28 sec) 
Heartbeat CPU  0 instructions:  504000000 cycles: 1173852659 heartbeat IPC: 1.07372 cumulative IPC: 0.37851 (Simulation time: 0 hr 14 min 29 sec) 
Heartbeat CPU  0 instructions:  505000000 cycles: 1174588971 heartbeat IPC: 1.35812 cumulative IPC: 0.37918 (Simulation time: 0 hr 14 min 31 sec) 
Heartbeat CPU  0 instructions:  506000000 cycles: 1175532306 heartbeat IPC: 1.06007 cumulative IPC: 0.37978 (Simulation time: 0 hr 14 min 33 sec) 
Heartbeat CPU  0 instructions:  507000002 cycles: 1176601757 heartbeat IPC: 0.93506 cumulative IPC: 0.38034 (Simulation time: 0 hr 14 min 36 sec) 
Heartbeat CPU  0 instructions:  508000000 cycles: 1178467327 heartbeat IPC: 0.53603 cumulative IPC: 0.38061 (Simulation time: 0 hr 14 min 38 sec) 
Heartbeat CPU  0 instructions:  509000000 cycles: 1180675259 heartbeat IPC: 0.45291 cumulative IPC: 0.38076 (Simulation time: 0 hr 14 min 41 sec) 
Heartbeat CPU  0 instructions:  510000003 cycles: 1182924487 heartbeat IPC: 0.44460 cumulative IPC: 0.38089 (Simulation time: 0 hr 14 min 44 sec) 
Heartbeat CPU  0 instructions:  511000001 cycles: 1185619204 heartbeat IPC: 0.37110 cumulative IPC: 0.38087 (Simulation time: 0 hr 14 min 47 sec) 
Heartbeat CPU  0 instructions:  512000000 cycles: 1188914358 heartbeat IPC: 0.30348 cumulative IPC: 0.38063 (Simulation time: 0 hr 14 min 51 sec) 
Heartbeat CPU  0 instructions:  513000002 cycles: 1192279627 heartbeat IPC: 0.29715 cumulative IPC: 0.38037 (Simulation time: 0 hr 14 min 55 sec) 
Heartbeat CPU  0 instructions:  514000001 cycles: 1194205074 heartbeat IPC: 0.51936 cumulative IPC: 0.38062 (Simulation time: 0 hr 14 min 57 sec) 
Heartbeat CPU  0 instructions:  515000001 cycles: 1195346791 heartbeat IPC: 0.87587 cumulative IPC: 0.38114 (Simulation time: 0 hr 14 min 59 sec) 
Heartbeat CPU  0 instructions:  516000000 cycles: 1196472829 heartbeat IPC: 0.88807 cumulative IPC: 0.38166 (Simulation time: 0 hr 15 min 2 sec) 
Heartbeat CPU  0 instructions:  517000001 cycles: 1197615057 heartbeat IPC: 0.87548 cumulative IPC: 0.38218 (Simulation time: 0 hr 15 min 4 sec) 
Heartbeat CPU  0 instructions:  518000002 cycles: 1199865838 heartbeat IPC: 0.44429 cumulative IPC: 0.38231 (Simulation time: 0 hr 15 min 7 sec) 
Heartbeat CPU  0 instructions:  519000002 cycles: 1202210152 heartbeat IPC: 0.42656 cumulative IPC: 0.38240 (Simulation time: 0 hr 15 min 10 sec) 
Heartbeat CPU  0 instructions:  520000000 cycles: 1204495538 heartbeat IPC: 0.43756 cumulative IPC: 0.38252 (Simulation time: 0 hr 15 min 13 sec) 
Heartbeat CPU  0 instructions:  521000000 cycles: 1207488832 heartbeat IPC: 0.33408 cumulative IPC: 0.38238 (Simulation time: 0 hr 15 min 16 sec) 
Heartbeat CPU  0 instructions:  522000002 cycles: 1210849553 heartbeat IPC: 0.29756 cumulative IPC: 0.38213 (Simulation time: 0 hr 15 min 20 sec) 
Heartbeat CPU  0 instructions:  523000000 cycles: 1213965610 heartbeat IPC: 0.32092 cumulative IPC: 0.38195 (Simulation time: 0 hr 15 min 23 sec) 
Heartbeat CPU  0 instructions:  524000000 cycles: 1216199136 heartbeat IPC: 0.44772 cumulative IPC: 0.38209 (Simulation time: 0 hr 15 min 25 sec) 
Heartbeat CPU  0 instructions:  525000002 cycles: 1218755647 heartbeat IPC: 0.39116 cumulative IPC: 0.38211 (Simulation time: 0 hr 15 min 27 sec) 
Heartbeat CPU  0 instructions:  526000000 cycles: 1221057587 heartbeat IPC: 0.43442 cumulative IPC: 0.38221 (Simulation time: 0 hr 15 min 29 sec) 
Heartbeat CPU  0 instructions:  527000001 cycles: 1223835158 heartbeat IPC: 0.36003 cumulative IPC: 0.38216 (Simulation time: 0 hr 15 min 31 sec) 
Heartbeat CPU  0 instructions:  528000000 cycles: 1226102338 heartbeat IPC: 0.44108 cumulative IPC: 0.38228 (Simulation time: 0 hr 15 min 32 sec) 
Heartbeat CPU  0 instructions:  529000000 cycles: 1228064932 heartbeat IPC: 0.50953 cumulative IPC: 0.38250 (Simulation time: 0 hr 15 min 34 sec) 
Heartbeat CPU  0 instructions:  530000003 cycles: 1230878923 heartbeat IPC: 0.35537 cumulative IPC: 0.38243 (Simulation time: 0 hr 15 min 36 sec) 
Heartbeat CPU  0 instructions:  531000001 cycles: 1233296115 heartbeat IPC: 0.41370 cumulative IPC: 0.38250 (Simulation time: 0 hr 15 min 38 sec) 
Heartbeat CPU  0 instructions:  532000000 cycles: 1235757618 heartbeat IPC: 0.40626 cumulative IPC: 0.38255 (Simulation time: 0 hr 15 min 39 sec) 
Heartbeat CPU  0 instructions:  533000002 cycles: 1238502501 heartbeat IPC: 0.36431 cumulative IPC: 0.38251 (Simulation time: 0 hr 15 min 41 sec) 
Heartbeat CPU  0 instructions:  534000000 cycles: 1240862931 heartbeat IPC: 0.42365 cumulative IPC: 0.38259 (Simulation time: 0 hr 15 min 43 sec) 
Heartbeat CPU  0 instructions:  535000000 cycles: 1242958202 heartbeat IPC: 0.47727 cumulative IPC: 0.38277 (Simulation time: 0 hr 15 min 45 sec) 
Heartbeat CPU  0 instructions:  536000000 cycles: 1245534715 heartbeat IPC: 0.38812 cumulative IPC: 0.38278 (Simulation time: 0 hr 15 min 47 sec) 
Heartbeat CPU  0 instructions:  537000001 cycles: 1247910137 heartbeat IPC: 0.42098 cumulative IPC: 0.38286 (Simulation time: 0 hr 15 min 49 sec) 
Heartbeat CPU  0 instructions:  538000001 cycles: 1250433639 heartbeat IPC: 0.39627 cumulative IPC: 0.38289 (Simulation time: 0 hr 15 min 50 sec) 
Heartbeat CPU  0 instructions:  539000000 cycles: 1252935496 heartbeat IPC: 0.39970 cumulative IPC: 0.38293 (Simulation time: 0 hr 15 min 52 sec) 
Heartbeat CPU  0 instructions:  540000000 cycles: 1255583201 heartbeat IPC: 0.37769 cumulative IPC: 0.38291 (Simulation time: 0 hr 15 min 54 sec) 
Heartbeat CPU  0 instructions:  541000001 cycles: 1258067076 heartbeat IPC: 0.40260 cumulative IPC: 0.38296 (Simulation time: 0 hr 15 min 56 sec) 
Heartbeat CPU  0 instructions:  542000002 cycles: 1260414253 heartbeat IPC: 0.42604 cumulative IPC: 0.38304 (Simulation time: 0 hr 15 min 58 sec) 
Heartbeat CPU  0 instructions:  543000003 cycles: 1262993518 heartbeat IPC: 0.38771 cumulative IPC: 0.38305 (Simulation time: 0 hr 16 min 0 sec) 
Heartbeat CPU  0 instructions:  544000000 cycles: 1265541945 heartbeat IPC: 0.39240 cumulative IPC: 0.38308 (Simulation time: 0 hr 16 min 2 sec) 
Heartbeat CPU  0 instructions:  545000000 cycles: 1267743875 heartbeat IPC: 0.45415 cumulative IPC: 0.38321 (Simulation time: 0 hr 16 min 4 sec) 
Heartbeat CPU  0 instructions:  546000000 cycles: 1270054959 heartbeat IPC: 0.43270 cumulative IPC: 0.38331 (Simulation time: 0 hr 16 min 5 sec) 
Heartbeat CPU  0 instructions:  547000000 cycles: 1272502130 heartbeat IPC: 0.40864 cumulative IPC: 0.38336 (Simulation time: 0 hr 16 min 7 sec) 
Heartbeat CPU  0 instructions:  548000000 cycles: 1275156439 heartbeat IPC: 0.37675 cumulative IPC: 0.38335 (Simulation time: 0 hr 16 min 9 sec) 
Heartbeat CPU  0 instructions:  549000000 cycles: 1277743573 heartbeat IPC: 0.38653 cumulative IPC: 0.38335 (Simulation time: 0 hr 16 min 11 sec) 
Heartbeat CPU  0 instructions:  550000001 cycles: 1280344435 heartbeat IPC: 0.38449 cumulative IPC: 0.38336 (Simulation time: 0 hr 16 min 13 sec) 
Heartbeat CPU  0 instructions:  551000001 cycles: 1282985075 heartbeat IPC: 0.37870 cumulative IPC: 0.38335 (Simulation time: 0 hr 16 min 15 sec) 
Heartbeat CPU  0 instructions:  552000000 cycles: 1285615819 heartbeat IPC: 0.38012 cumulative IPC: 0.38334 (Simulation time: 0 hr 16 min 16 sec) 
Heartbeat CPU  0 instructions:  553000002 cycles: 1288179266 heartbeat IPC: 0.39010 cumulative IPC: 0.38335 (Simulation time: 0 hr 16 min 18 sec) 
Heartbeat CPU  0 instructions:  554000000 cycles: 1290834574 heartbeat IPC: 0.37660 cumulative IPC: 0.38334 (Simulation time: 0 hr 16 min 20 sec) 
Heartbeat CPU  0 instructions:  555000000 cycles: 1293587401 heartbeat IPC: 0.36326 cumulative IPC: 0.38329 (Simulation time: 0 hr 16 min 22 sec) 
Heartbeat CPU  0 instructions:  556000000 cycles: 1296097352 heartbeat IPC: 0.39841 cumulative IPC: 0.38332 (Simulation time: 0 hr 16 min 24 sec) 
Heartbeat CPU  0 instructions:  557000000 cycles: 1298821602 heartbeat IPC: 0.36707 cumulative IPC: 0.38329 (Simulation time: 0 hr 16 min 26 sec) 
Heartbeat CPU  0 instructions:  558000000 cycles: 1301445950 heartbeat IPC: 0.38105 cumulative IPC: 0.38328 (Simulation time: 0 hr 16 min 28 sec) 
Heartbeat CPU  0 instructions:  559000000 cycles: 1304176670 heartbeat IPC: 0.36620 cumulative IPC: 0.38324 (Simulation time: 0 hr 16 min 30 sec) 
Heartbeat CPU  0 instructions:  560000000 cycles: 1306890492 heartbeat IPC: 0.36848 cumulative IPC: 0.38321 (Simulation time: 0 hr 16 min 32 sec) 
Heartbeat CPU  0 instructions:  561000001 cycles: 1309531673 heartbeat IPC: 0.37862 cumulative IPC: 0.38320 (Simulation time: 0 hr 16 min 33 sec) 
Heartbeat CPU  0 instructions:  562000000 cycles: 1312205660 heartbeat IPC: 0.37397 cumulative IPC: 0.38318 (Simulation time: 0 hr 16 min 35 sec) 
Heartbeat CPU  0 instructions:  563000001 cycles: 1314973152 heartbeat IPC: 0.36134 cumulative IPC: 0.38313 (Simulation time: 0 hr 16 min 37 sec) 
Heartbeat CPU  0 instructions:  564000000 cycles: 1317456589 heartbeat IPC: 0.40267 cumulative IPC: 0.38317 (Simulation time: 0 hr 16 min 39 sec) 
Heartbeat CPU  0 instructions:  565000002 cycles: 1320159835 heartbeat IPC: 0.36993 cumulative IPC: 0.38314 (Simulation time: 0 hr 16 min 41 sec) 
Heartbeat CPU  0 instructions:  566000000 cycles: 1322759268 heartbeat IPC: 0.38470 cumulative IPC: 0.38314 (Simulation time: 0 hr 16 min 43 sec) 
Heartbeat CPU  0 instructions:  567000003 cycles: 1325406273 heartbeat IPC: 0.37779 cumulative IPC: 0.38313 (Simulation time: 0 hr 16 min 45 sec) 
Heartbeat CPU  0 instructions:  568000000 cycles: 1328070189 heartbeat IPC: 0.37539 cumulative IPC: 0.38311 (Simulation time: 0 hr 16 min 47 sec) 
Heartbeat CPU  0 instructions:  569000002 cycles: 1330868881 heartbeat IPC: 0.35731 cumulative IPC: 0.38305 (Simulation time: 0 hr 16 min 48 sec) 
Heartbeat CPU  0 instructions:  570000001 cycles: 1333587722 heartbeat IPC: 0.36780 cumulative IPC: 0.38302 (Simulation time: 0 hr 16 min 50 sec) 
Heartbeat CPU  0 instructions:  571000001 cycles: 1336296754 heartbeat IPC: 0.36914 cumulative IPC: 0.38299 (Simulation time: 0 hr 16 min 52 sec) 
Heartbeat CPU  0 instructions:  572000000 cycles: 1339072422 heartbeat IPC: 0.36027 cumulative IPC: 0.38294 (Simulation time: 0 hr 16 min 54 sec) 
Heartbeat CPU  0 instructions:  573000000 cycles: 1341805425 heartbeat IPC: 0.36590 cumulative IPC: 0.38290 (Simulation time: 0 hr 16 min 56 sec) 
Heartbeat CPU  0 instructions:  574000000 cycles: 1344575291 heartbeat IPC: 0.36103 cumulative IPC: 0.38285 (Simulation time: 0 hr 16 min 58 sec) 
Heartbeat CPU  0 instructions:  575000002 cycles: 1347344120 heartbeat IPC: 0.36116 cumulative IPC: 0.38280 (Simulation time: 0 hr 17 min 0 sec) 
Heartbeat CPU  0 instructions:  576000000 cycles: 1350030823 heartbeat IPC: 0.37220 cumulative IPC: 0.38278 (Simulation time: 0 hr 17 min 2 sec) 
Heartbeat CPU  0 instructions:  577000002 cycles: 1352748484 heartbeat IPC: 0.36796 cumulative IPC: 0.38275 (Simulation time: 0 hr 17 min 4 sec) 
Heartbeat CPU  0 instructions:  578000001 cycles: 1355326984 heartbeat IPC: 0.38782 cumulative IPC: 0.38276 (Simulation time: 0 hr 17 min 6 sec) 
Heartbeat CPU  0 instructions:  579000002 cycles: 1358006858 heartbeat IPC: 0.37315 cumulative IPC: 0.38274 (Simulation time: 0 hr 17 min 7 sec) 
Heartbeat CPU  0 instructions:  580000000 cycles: 1360676684 heartbeat IPC: 0.37456 cumulative IPC: 0.38272 (Simulation time: 0 hr 17 min 9 sec) 
Heartbeat CPU  0 instructions:  581000003 cycles: 1363326027 heartbeat IPC: 0.37745 cumulative IPC: 0.38271 (Simulation time: 0 hr 17 min 11 sec) 
Heartbeat CPU  0 instructions:  582000001 cycles: 1366072040 heartbeat IPC: 0.36416 cumulative IPC: 0.38267 (Simulation time: 0 hr 17 min 13 sec) 
Heartbeat CPU  0 instructions:  583000000 cycles: 1368711834 heartbeat IPC: 0.37882 cumulative IPC: 0.38266 (Simulation time: 0 hr 17 min 15 sec) 
Heartbeat CPU  0 instructions:  584000000 cycles: 1371328094 heartbeat IPC: 0.38223 cumulative IPC: 0.38266 (Simulation time: 0 hr 17 min 17 sec) 
Heartbeat CPU  0 instructions:  585000002 cycles: 1374045893 heartbeat IPC: 0.36795 cumulative IPC: 0.38263 (Simulation time: 0 hr 17 min 19 sec) 
Heartbeat CPU  0 instructions:  586000000 cycles: 1376731213 heartbeat IPC: 0.37239 cumulative IPC: 0.38261 (Simulation time: 0 hr 17 min 21 sec) 
Heartbeat CPU  0 instructions:  587000000 cycles: 1379196477 heartbeat IPC: 0.40564 cumulative IPC: 0.38265 (Simulation time: 0 hr 17 min 23 sec) 
Heartbeat CPU  0 instructions:  588000000 cycles: 1381830891 heartbeat IPC: 0.37959 cumulative IPC: 0.38265 (Simulation time: 0 hr 17 min 25 sec) 
Heartbeat CPU  0 instructions:  589000002 cycles: 1384383052 heartbeat IPC: 0.39183 cumulative IPC: 0.38266 (Simulation time: 0 hr 17 min 27 sec) 
Heartbeat CPU  0 instructions:  590000000 cycles: 1386988202 heartbeat IPC: 0.38385 cumulative IPC: 0.38267 (Simulation time: 0 hr 17 min 28 sec) 
Heartbeat CPU  0 instructions:  591000000 cycles: 1389440681 heartbeat IPC: 0.40775 cumulative IPC: 0.38271 (Simulation time: 0 hr 17 min 30 sec) 
Heartbeat CPU  0 instructions:  592000000 cycles: 1392141205 heartbeat IPC: 0.37030 cumulative IPC: 0.38269 (Simulation time: 0 hr 17 min 32 sec) 
Heartbeat CPU  0 instructions:  593000001 cycles: 1394813527 heartbeat IPC: 0.37421 cumulative IPC: 0.38267 (Simulation time: 0 hr 17 min 34 sec) 
Heartbeat CPU  0 instructions:  594000000 cycles: 1397388023 heartbeat IPC: 0.38843 cumulative IPC: 0.38268 (Simulation time: 0 hr 17 min 36 sec) 
Heartbeat CPU  0 instructions:  595000002 cycles: 1400132789 heartbeat IPC: 0.36433 cumulative IPC: 0.38264 (Simulation time: 0 hr 17 min 38 sec) 
Heartbeat CPU  0 instructions:  596000000 cycles: 1402492513 heartbeat IPC: 0.42378 cumulative IPC: 0.38272 (Simulation time: 0 hr 17 min 39 sec) 
Heartbeat CPU  0 instructions:  597000000 cycles: 1404897467 heartbeat IPC: 0.41581 cumulative IPC: 0.38278 (Simulation time: 0 hr 17 min 41 sec) 
Heartbeat CPU  0 instructions:  598000000 cycles: 1407378540 heartbeat IPC: 0.40305 cumulative IPC: 0.38282 (Simulation time: 0 hr 17 min 43 sec) 
Heartbeat CPU  0 instructions:  599000001 cycles: 1410051532 heartbeat IPC: 0.37411 cumulative IPC: 0.38280 (Simulation time: 0 hr 17 min 45 sec) 
Heartbeat CPU  0 instructions:  600000000 cycles: 1412642245 heartbeat IPC: 0.38599 cumulative IPC: 0.38281 (Simulation time: 0 hr 17 min 47 sec) 
Finished CPU 0 instructions: 500000000 cycles: 1306141884 cumulative IPC: 0.38281 (Simulation time: 0 hr 17 min 47 sec) 

ChampSim completed all CPUs

[ROI Statistics]
Core_0_instructions 500000000
Core_0_cycles 1306141884
Core_0_IPC 0.38281

Core_0_branch_prediction_accuracy 85.44512
Core_0_branch_MPKI 23.17008
Core_0_average_ROB_occupancy_at_mispredict 40.38680

Core_0_L1D_total_access 157697739
Core_0_L1D_total_hit 155630309
Core_0_L1D_total_miss 2067430
Core_0_L1D_loads 90378941
Core_0_L1D_load_hit 89666311
Core_0_L1D_load_miss 712630
Core_0_L1D_RFOs 67318798
Core_0_L1D_RFO_hit 65963998
Core_0_L1D_RFO_miss 1354800
Core_0_L1D_prefetches 0
Core_0_L1D_prefetch_hit 0
Core_0_L1D_prefetch_miss 0
Core_0_L1D_writebacks 0
Core_0_L1D_writeback_hit 0
Core_0_L1D_writeback_miss 0
Core_0_L1D_prefetch_requested 0
Core_0_L1D_prefetch_dropped 0
Core_0_L1D_prefetch_issued 0
Core_0_L1D_prefetch_filled 0
Core_0_L1D_prefetch_useful 0
Core_0_L1D_prefetch_useless 0
Core_0_L1D_prefetch_late 0
Core_0_L1D_average_miss_latency 329.63282

Core_0_L1D_rq_access 127065411
Core_0_L1D_rq_forward 0
Core_0_L1D_rq_merged 36553018
Core_0_L1D_rq_to_cache 90512006
Core_0_L1D_rq_full 0

Core_0_L1D_wq_access 71549319
Core_0_L1D_wq_forward 387
Core_0_L1D_wq_merged 408604
Core_0_L1D_wq_to_cache 71140715
Core_0_L1D_wq_full 30473146

Core_0_L1D_pq_access 0
Core_0_L1D_pq_forward 0
Core_0_L1D_pq_merged 0
Core_0_L1D_pq_to_cache 0
Core_0_L1D_pq_full 0

Core_0_L1D_acc_epochs 1373958
Core_0_L1D_acc_level_0 1373958
Core_0_L1D_acc_level_1 0
Core_0_L1D_acc_level_2 0
Core_0_L1D_acc_level_3 0
Core_0_L1D_acc_level_4 0
Core_0_L1D_acc_level_5 0
Core_0_L1D_acc_level_6 0
Core_0_L1D_acc_level_7 0
Core_0_L1D_acc_level_8 0
Core_0_L1D_acc_level_9 0

Core_0_L1I_total_access 98580926
Core_0_L1I_total_hit 96961366
Core_0_L1I_total_miss 1619560
Core_0_L1I_loads 98580926
Core_0_L1I_load_hit 96961366
Core_0_L1I_load_miss 1619560
Core_0_L1I_RFOs 0
Core_0_L1I_RFO_hit 0
Core_0_L1I_RFO_miss 0
Core_0_L1I_prefetches 0
Core_0_L1I_prefetch_hit 0
Core_0_L1I_prefetch_miss 0
Core_0_L1I_writebacks 0
Core_0_L1I_writeback_hit 0
Core_0_L1I_writeback_miss 0
Core_0_L1I_prefetch_requested 0
Core_0_L1I_prefetch_dropped 0
Core_0_L1I_prefetch_issued 0
Core_0_L1I_prefetch_filled 0
Core_0_L1I_prefetch_useful 0
Core_0_L1I_prefetch_useless 0
Core_0_L1I_prefetch_late 0
Core_0_L1I_average_miss_latency 12.22147

Core_0_L1I_rq_access 499999979
Core_0_L1I_rq_forward 0
Core_0_L1I_rq_merged 400838871
Core_0_L1I_rq_to_cache 99161108
Core_0_L1I_rq_full 0

Core_0_L1I_wq_access 0
Core_0_L1I_wq_forward 0
Core_0_L1I_wq_merged 0
Core_0_L1I_wq_to_cache 0
Core_0_L1I_wq_full 0

Core_0_L1I_pq_access 0
Core_0_L1I_pq_forward 0
Core_0_L1I_pq_merged 0
Core_0_L1I_pq_to_cache 0
Core_0_L1I_pq_full 0

Core_0_L1I_acc_epochs 1373958
Core_0_L1I_acc_level_0 1373958
Core_0_L1I_acc_level_1 0
Core_0_L1I_acc_level_2 0
Core_0_L1I_acc_level_3 0
Core_0_L1I_acc_level_4 0
Core_0_L1I_acc_level_5 0
Core_0_L1I_acc_level_6 0
Core_0_L1I_acc_level_7 0
Core_0_L1I_acc_level_8 0
Core_0_L1I_acc_level_9 0

Core_0_L2C_total_access 5775145
Core_0_L2C_total_hit 4525334
Core_0_L2C_total_miss 1249811
Core_0_L2C_loads 2332184
Core_0_L2C_load_hit 2109212
Core_0_L2C_load_miss 222972
Core_0_L2C_RFOs 1354773
Core_0_L2C_RFO_hit 531005
Core_0_L2C_RFO_miss 823768
Core_0_L2C_prefetches 492919
Core_0_L2C_prefetch_hit 292848
Core_0_L2C_prefetch_miss 200071
Core_0_L2C_writebacks 1595269
Core_0_L2C_writeback_hit 1592269
Core_0_L2C_writeback_miss 3000
Core_0_L2C_prefetch_requested 1344818
Core_0_L2C_prefetch_dropped 0
Core_0_L2C_prefetch_issued 1344818
Core_0_L2C_prefetch_filled 287358
Core_0_L2C_prefetch_useful 219117
Core_0_L2C_prefetch_useless 68052
Core_0_L2C_prefetch_late 3102
Core_0_L2C_average_miss_latency 542.61817

Core_0_L2C_rq_access 3686990
Core_0_L2C_rq_forward 0
Core_0_L2C_rq_merged 0
Core_0_L2C_rq_to_cache 3686957
Core_0_L2C_rq_full 0

Core_0_L2C_wq_access 1595269
Core_0_L2C_wq_forward 33
Core_0_L2C_wq_merged 0
Core_0_L2C_wq_to_cache 1595269
Core_0_L2C_wq_full 0

Core_0_L2C_pq_access 1344818
Core_0_L2C_pq_forward 0
Core_0_L2C_pq_merged 0
Core_0_L2C_pq_to_cache 1344818
Core_0_L2C_pq_full 0

Core_0_L2C_acc_epochs 1373958
Core_0_L2C_acc_level_0 1326208
Core_0_L2C_acc_level_1 15244
Core_0_L2C_acc_level_2 12521
Core_0_L2C_acc_level_3 2354
Core_0_L2C_acc_level_4 1263
Core_0_L2C_acc_level_5 9709
Core_0_L2C_acc_level_6 903
Core_0_L2C_acc_level_7 818
Core_0_L2C_acc_level_8 535
Core_0_L2C_acc_level_9 4403

Core_0_LLC_total_access 2792380
Core_0_LLC_total_hit 772297
Core_0_LLC_total_miss 2020083
Core_0_LLC_loads 220023
Core_0_LLC_load_hit 107113
Core_0_LLC_load_miss 112910
Core_0_LLC_RFOs 823755
Core_0_LLC_RFO_hit 84135
Core_0_LLC_RFO_miss 739620
Core_0_LLC_prefetches 766658
Core_0_LLC_prefetch_hit 297675
Core_0_LLC_prefetch_miss 468983
Core_0_LLC_writebacks 981944
Core_0_LLC_writeback_hit 283374
Core_0_LLC_writeback_miss 698570
Core_0_LLC_prefetch_requested 0
Core_0_LLC_prefetch_dropped 0
Core_0_LLC_prefetch_issued 0
Core_0_LLC_prefetch_filled 564421
Core_0_LLC_prefetch_useful 47128
Core_0_LLC_prefetch_useless 496341
Core_0_LLC_prefetch_late 24
Core_0_LLC_average_miss_latency 362.42825

Core_0_LLC_rq_access 1043779
Core_0_LLC_rq_forward 0
Core_0_LLC_rq_merged 0
Core_0_LLC_rq_to_cache 1043778
Core_0_LLC_rq_full 0

Core_0_LLC_wq_access 981944
Core_0_LLC_wq_forward 2
Core_0_LLC_wq_merged 0
Core_0_LLC_wq_to_cache 981944
Core_0_LLC_wq_full 0

Core_0_LLC_pq_access 973627
Core_0_LLC_pq_forward 0
Core_0_LLC_pq_merged 0
Core_0_LLC_pq_to_cache 973626
Core_0_LLC_pq_full 0

Core_0_LLC_acc_epochs 1379534
Core_0_LLC_acc_level_0 1344735
Core_0_LLC_acc_level_1 20967
Core_0_LLC_acc_level_2 8544
Core_0_LLC_acc_level_3 660
Core_0_LLC_acc_level_4 32
Core_0_LLC_acc_level_5 4050
Core_0_LLC_acc_level_6 35
Core_0_LLC_acc_level_7 66
Core_0_LLC_acc_level_8 13
Core_0_LLC_acc_level_9 432

Core_0_major_page_fault 0
Core_0_minor_page_fault 6504

[Bingo] PHT Access: 224622
[Bingo] PHT Hit PC+Addr: 57315
[Bingo] PHT Hit PC+Offs: 146384
[Bingo] PHT Miss: 20923
[Bingo] Prefetch PC+Addr: 0
[Bingo] Prefetch PC+Offs: 0
[Bingo] Useful PC+Addr: 0
[Bingo] Useful PC+Offs: 0
[Bingo] Useless PC+Addr: 0
[Bingo] Useless PC+Offs: 0
[Bingo] L1 Prefetch per Region: 0.00000
[Bingo] L2 Prefetch per Region: 4.18866
[Bingo] L3 Prefetch per Region: 3.43483
[Bingo] No Prefetch per Region: 24.37651
[Bingo] Number of Voters Mean: 6.22639
[Bingo] Number of Voters SD: 3.25919

Channel_0_RQ_row_buffer_hit 373934
Channel_0_RQ_row_buffer_miss 947577
Channel_0_WQ_row_buffer_hit 209080
Channel_0_WQ_row_buffer_miss 665299
Channel_0_WQ_full 39837
Channel_0_dbus_congested 1810328

avg_congested_cycle 11

DRAM_bw_pochs 5518134
DRAM_bw_level_0 5314729
DRAM_bw_level_1 140184
DRAM_bw_level_2 47018
DRAM_bw_level_3 16203
