*************************************************
   ChampSim Multicore Out-of-Order Simulator
   Last compiled: Dec 11 2024 17:59:53
*************************************************
parsing config file: /home/functionmain/桌面/Pythia/config/bingo.ini

trace_0 /home/functionmain/桌面/Pythia/traces/445.gobmk-36B.champsimtrace.xz
adding L2C_PREFETCHER: Bingo
Initialize SHIP state
warmup_instructions 100000000
simulation_instructions 500000000
champsim_seed 171
measure_ipc 0
measure_ipc_epoch 1000
measure_dram_bw 1
measure_dram_bw_epoch 256
measure_cache_acc 1
measure_cache_acc_epoch 1024
l1d_perfect 0
l2c_perfect 0
llc_perfect 0
l1d_semi_perfect 0
l2c_semi_perfect 0
llc_semi_perfect 0
semi_perfect_cache_page_buffer_size 64

num_cpus 1
cpu_freq 4000
dram_io_freq 1200
page_size 4096
block_size 64
max_read_per_cycle 8
max_fill_per_cycle 1
dram_channels 1
log2_dram_channels 0
dram_ranks 1
dram_banks 8
dram_rows 65536
dram_columns 128
dram_row_size 8
dram_size 4096
dram_pages 1048576

fetch_width 6
decode_width 6
exec_width 4
lq_width 2
sq_width 2
retire_width 4
scheduler_size 128
branch_mispredict_penalty 20
rob_size 256
lq_size 72
sq_size 56
num_instr_destinations_sparc 4
num_instr_destinations 2
num_instr_sources 4

itlb_set 16
itlb_way 8
itlb_rq_size 16
itlb_wq_size 16
itlb_pq_size 0
itlb_mshr_size 8
itlb_latency 1

dtlb_set 16
dtlb_way 4
dtlb_rq_size 16
dtlb_wq_size 16
dtlb_pq_size 0
dtlb_mshr_size 8
dtlb_latency 1

stlb_set 128
stlb_way 12
stlb_rq_size 32
stlb_wq_size 32
stlb_pq_size 0
stlb_mshr_size 16
stlb_latency 8

l1i_size 32
l1i_set 64
l1i_way 8
l1i_rq_size 64
l1i_wq_size 64
l1i_pq_size 8
l1i_mshr_size 8
l1i_latency 1

l1d_size 32
l1d_set 64
l1d_way 8
l1d_rq_size 64
l1d_wq_size 64
l1d_pq_size 8
l1d_mshr_size 16
l1d_latency 4

l2c_size 256
l2c_set 512
l2c_way 8
l2c_rq_size 32
l2c_wq_size 32
l2c_pq_size 32
l2c_mshr_size 32
l2c_latency 10

llc_size 2048
llc_set 2048
llc_way 16
llc_rq_size 32
llc_wq_size 32
llc_pq_size 32
llc_mshr_size 64
llc_latency 20

dram_channel_width 8
dram_wq_size 64
dram_rq_size 64
tRP 15
tRCD 15
tCAS 12.5
dram_dbus_turn_around_time 30
dram_write_high_wm 56
dram_write_low_wm 48
min_dram_writes_per_switch 16
dram_mtps 1200
dram_dbus_return_time 26

bingo_region_size 2048
bingo_pattern_len 32
bingo_pc_width 16
bingo_min_addr_width 5
bingo_max_addr_width 16
bingo_ft_size 64
bingo_at_size 128
bingo_pht_size 4096
bingo_pht_ways 16
bingo_pf_streamer_size 128
bingo_debug_level 0
bingo_l1d_thresh 1.01
bingo_l2c_thresh 0.8
bingo_llc_thresh 0.05
bingo_pc_address_fill_level L2


Heartbeat CPU  0 instructions:    1000000 cycles:    1143434 heartbeat IPC: 0.87456 cumulative IPC: 0.87456 (Simulation time: 0 hr 0 min 1 sec) 
Heartbeat CPU  0 instructions:    2000000 cycles:    2306974 heartbeat IPC: 0.85945 cumulative IPC: 0.86694 (Simulation time: 0 hr 0 min 3 sec) 
Heartbeat CPU  0 instructions:    3000000 cycles:    3459370 heartbeat IPC: 0.86776 cumulative IPC: 0.86721 (Simulation time: 0 hr 0 min 4 sec) 
Heartbeat CPU  0 instructions:    4000000 cycles:    4510733 heartbeat IPC: 0.95115 cumulative IPC: 0.88677 (Simulation time: 0 hr 0 min 6 sec) 
Heartbeat CPU  0 instructions:    5000001 cycles:    5594467 heartbeat IPC: 0.92274 cumulative IPC: 0.89374 (Simulation time: 0 hr 0 min 7 sec) 
Heartbeat CPU  0 instructions:    6000000 cycles:    6675423 heartbeat IPC: 0.92511 cumulative IPC: 0.89882 (Simulation time: 0 hr 0 min 9 sec) 
Heartbeat CPU  0 instructions:    7000002 cycles:    7776649 heartbeat IPC: 0.90808 cumulative IPC: 0.90013 (Simulation time: 0 hr 0 min 10 sec) 
Heartbeat CPU  0 instructions:    8000000 cycles:    8891553 heartbeat IPC: 0.89694 cumulative IPC: 0.89973 (Simulation time: 0 hr 0 min 11 sec) 
Heartbeat CPU  0 instructions:    9000002 cycles:   10003258 heartbeat IPC: 0.89952 cumulative IPC: 0.89971 (Simulation time: 0 hr 0 min 13 sec) 
Heartbeat CPU  0 instructions:   10000000 cycles:   10942605 heartbeat IPC: 1.06457 cumulative IPC: 0.91386 (Simulation time: 0 hr 0 min 14 sec) 
Heartbeat CPU  0 instructions:   11000002 cycles:   11926506 heartbeat IPC: 1.01636 cumulative IPC: 0.92232 (Simulation time: 0 hr 0 min 15 sec) 
Heartbeat CPU  0 instructions:   12000000 cycles:   13064800 heartbeat IPC: 0.87851 cumulative IPC: 0.91850 (Simulation time: 0 hr 0 min 17 sec) 
Heartbeat CPU  0 instructions:   13000001 cycles:   14085545 heartbeat IPC: 0.97968 cumulative IPC: 0.92293 (Simulation time: 0 hr 0 min 18 sec) 
Heartbeat CPU  0 instructions:   14000001 cycles:   15202448 heartbeat IPC: 0.89533 cumulative IPC: 0.92090 (Simulation time: 0 hr 0 min 20 sec) 
Heartbeat CPU  0 instructions:   15000003 cycles:   16231971 heartbeat IPC: 0.97133 cumulative IPC: 0.92410 (Simulation time: 0 hr 0 min 21 sec) 
Heartbeat CPU  0 instructions:   16000000 cycles:   17274232 heartbeat IPC: 0.95945 cumulative IPC: 0.92624 (Simulation time: 0 hr 0 min 22 sec) 
Heartbeat CPU  0 instructions:   17000001 cycles:   18299095 heartbeat IPC: 0.97574 cumulative IPC: 0.92901 (Simulation time: 0 hr 0 min 24 sec) 
Heartbeat CPU  0 instructions:   18000001 cycles:   19403052 heartbeat IPC: 0.90583 cumulative IPC: 0.92769 (Simulation time: 0 hr 0 min 25 sec) 
Heartbeat CPU  0 instructions:   19000003 cycles:   20431391 heartbeat IPC: 0.97244 cumulative IPC: 0.92994 (Simulation time: 0 hr 0 min 27 sec) 
Heartbeat CPU  0 instructions:   20000000 cycles:   21405213 heartbeat IPC: 1.02688 cumulative IPC: 0.93435 (Simulation time: 0 hr 0 min 28 sec) 
Heartbeat CPU  0 instructions:   21000002 cycles:   22409256 heartbeat IPC: 0.99598 cumulative IPC: 0.93711 (Simulation time: 0 hr 0 min 30 sec) 
Heartbeat CPU  0 instructions:   22000002 cycles:   23400752 heartbeat IPC: 1.00858 cumulative IPC: 0.94014 (Simulation time: 0 hr 0 min 31 sec) 
Heartbeat CPU  0 instructions:   23000000 cycles:   24440000 heartbeat IPC: 0.96223 cumulative IPC: 0.94108 (Simulation time: 0 hr 0 min 32 sec) 
Heartbeat CPU  0 instructions:   24000000 cycles:   25395787 heartbeat IPC: 1.04626 cumulative IPC: 0.94504 (Simulation time: 0 hr 0 min 34 sec) 
Heartbeat CPU  0 instructions:   25000000 cycles:   26453751 heartbeat IPC: 0.94521 cumulative IPC: 0.94505 (Simulation time: 0 hr 0 min 35 sec) 
Heartbeat CPU  0 instructions:   26000001 cycles:   27516061 heartbeat IPC: 0.94135 cumulative IPC: 0.94490 (Simulation time: 0 hr 0 min 37 sec) 
Heartbeat CPU  0 instructions:   27000001 cycles:   28503388 heartbeat IPC: 1.01284 cumulative IPC: 0.94726 (Simulation time: 0 hr 0 min 39 sec) 
Heartbeat CPU  0 instructions:   28000000 cycles:   29565292 heartbeat IPC: 0.94170 cumulative IPC: 0.94706 (Simulation time: 0 hr 0 min 40 sec) 
Heartbeat CPU  0 instructions:   29000002 cycles:   30602028 heartbeat IPC: 0.96457 cumulative IPC: 0.94765 (Simulation time: 0 hr 0 min 41 sec) 
Heartbeat CPU  0 instructions:   30000001 cycles:   31599313 heartbeat IPC: 1.00272 cumulative IPC: 0.94939 (Simulation time: 0 hr 0 min 43 sec) 
Heartbeat CPU  0 instructions:   31000002 cycles:   32708802 heartbeat IPC: 0.90132 cumulative IPC: 0.94776 (Simulation time: 0 hr 0 min 44 sec) 
Heartbeat CPU  0 instructions:   32000000 cycles:   33757673 heartbeat IPC: 0.95340 cumulative IPC: 0.94793 (Simulation time: 0 hr 0 min 46 sec) 
Heartbeat CPU  0 instructions:   33000000 cycles:   34824505 heartbeat IPC: 0.93735 cumulative IPC: 0.94761 (Simulation time: 0 hr 0 min 47 sec) 
Heartbeat CPU  0 instructions:   34000000 cycles:   35870703 heartbeat IPC: 0.95584 cumulative IPC: 0.94785 (Simulation time: 0 hr 0 min 49 sec) 
Heartbeat CPU  0 instructions:   35000003 cycles:   36866516 heartbeat IPC: 1.00421 cumulative IPC: 0.94937 (Simulation time: 0 hr 0 min 50 sec) 
Heartbeat CPU  0 instructions:   36000000 cycles:   37962466 heartbeat IPC: 0.91245 cumulative IPC: 0.94831 (Simulation time: 0 hr 0 min 51 sec) 
Heartbeat CPU  0 instructions:   37000003 cycles:   39023413 heartbeat IPC: 0.94256 cumulative IPC: 0.94815 (Simulation time: 0 hr 0 min 53 sec) 
Heartbeat CPU  0 instructions:   38000002 cycles:   40046137 heartbeat IPC: 0.97778 cumulative IPC: 0.94891 (Simulation time: 0 hr 0 min 54 sec) 
Heartbeat CPU  0 instructions:   39000003 cycles:   41098762 heartbeat IPC: 0.95001 cumulative IPC: 0.94893 (Simulation time: 0 hr 0 min 56 sec) 
Heartbeat CPU  0 instructions:   40000000 cycles:   42174342 heartbeat IPC: 0.92973 cumulative IPC: 0.94844 (Simulation time: 0 hr 0 min 57 sec) 
Heartbeat CPU  0 instructions:   41000003 cycles:   43296366 heartbeat IPC: 0.89125 cumulative IPC: 0.94696 (Simulation time: 0 hr 0 min 58 sec) 
Heartbeat CPU  0 instructions:   42000001 cycles:   44325955 heartbeat IPC: 0.97126 cumulative IPC: 0.94753 (Simulation time: 0 hr 1 min 0 sec) 
Heartbeat CPU  0 instructions:   43000002 cycles:   45345455 heartbeat IPC: 0.98087 cumulative IPC: 0.94828 (Simulation time: 0 hr 1 min 1 sec) 
Heartbeat CPU  0 instructions:   44000000 cycles:   46428844 heartbeat IPC: 0.92303 cumulative IPC: 0.94769 (Simulation time: 0 hr 1 min 3 sec) 
Heartbeat CPU  0 instructions:   45000001 cycles:   47543549 heartbeat IPC: 0.89710 cumulative IPC: 0.94650 (Simulation time: 0 hr 1 min 4 sec) 
Heartbeat CPU  0 instructions:   46000002 cycles:   48600772 heartbeat IPC: 0.94588 cumulative IPC: 0.94649 (Simulation time: 0 hr 1 min 5 sec) 
Heartbeat CPU  0 instructions:   47000003 cycles:   49567841 heartbeat IPC: 1.03405 cumulative IPC: 0.94820 (Simulation time: 0 hr 1 min 7 sec) 
Heartbeat CPU  0 instructions:   48000000 cycles:   50569483 heartbeat IPC: 0.99836 cumulative IPC: 0.94919 (Simulation time: 0 hr 1 min 8 sec) 
Heartbeat CPU  0 instructions:   49000000 cycles:   51625986 heartbeat IPC: 0.94652 cumulative IPC: 0.94913 (Simulation time: 0 hr 1 min 10 sec) 
Heartbeat CPU  0 instructions:   50000001 cycles:   52671765 heartbeat IPC: 0.95623 cumulative IPC: 0.94928 (Simulation time: 0 hr 1 min 11 sec) 
Heartbeat CPU  0 instructions:   51000001 cycles:   53720652 heartbeat IPC: 0.95339 cumulative IPC: 0.94936 (Simulation time: 0 hr 1 min 13 sec) 
Heartbeat CPU  0 instructions:   52000000 cycles:   54788263 heartbeat IPC: 0.93667 cumulative IPC: 0.94911 (Simulation time: 0 hr 1 min 14 sec) 
Heartbeat CPU  0 instructions:   53000000 cycles:   55895428 heartbeat IPC: 0.90321 cumulative IPC: 0.94820 (Simulation time: 0 hr 1 min 15 sec) 
Heartbeat CPU  0 instructions:   54000003 cycles:   57012754 heartbeat IPC: 0.89500 cumulative IPC: 0.94716 (Simulation time: 0 hr 1 min 17 sec) 
Heartbeat CPU  0 instructions:   55000003 cycles:   58100665 heartbeat IPC: 0.91919 cumulative IPC: 0.94663 (Simulation time: 0 hr 1 min 18 sec) 
Heartbeat CPU  0 instructions:   56000000 cycles:   59161291 heartbeat IPC: 0.94284 cumulative IPC: 0.94656 (Simulation time: 0 hr 1 min 20 sec) 
Heartbeat CPU  0 instructions:   57000000 cycles:   60267436 heartbeat IPC: 0.90404 cumulative IPC: 0.94578 (Simulation time: 0 hr 1 min 21 sec) 
Heartbeat CPU  0 instructions:   58000000 cycles:   61311538 heartbeat IPC: 0.95776 cumulative IPC: 0.94599 (Simulation time: 0 hr 1 min 23 sec) 
Heartbeat CPU  0 instructions:   59000003 cycles:   62422089 heartbeat IPC: 0.90046 cumulative IPC: 0.94518 (Simulation time: 0 hr 1 min 24 sec) 
Heartbeat CPU  0 instructions:   60000000 cycles:   63490915 heartbeat IPC: 0.93560 cumulative IPC: 0.94502 (Simulation time: 0 hr 1 min 25 sec) 
Heartbeat CPU  0 instructions:   61000001 cycles:   64631453 heartbeat IPC: 0.87678 cumulative IPC: 0.94381 (Simulation time: 0 hr 1 min 27 sec) 
Heartbeat CPU  0 instructions:   62000001 cycles:   65681456 heartbeat IPC: 0.95238 cumulative IPC: 0.94395 (Simulation time: 0 hr 1 min 28 sec) 
Heartbeat CPU  0 instructions:   63000000 cycles:   66732603 heartbeat IPC: 0.95134 cumulative IPC: 0.94407 (Simulation time: 0 hr 1 min 30 sec) 
Heartbeat CPU  0 instructions:   64000000 cycles:   67805446 heartbeat IPC: 0.93210 cumulative IPC: 0.94388 (Simulation time: 0 hr 1 min 31 sec) 
Heartbeat CPU  0 instructions:   65000000 cycles:   68886894 heartbeat IPC: 0.92469 cumulative IPC: 0.94358 (Simulation time: 0 hr 1 min 32 sec) 
Heartbeat CPU  0 instructions:   66000000 cycles:   69977913 heartbeat IPC: 0.91657 cumulative IPC: 0.94315 (Simulation time: 0 hr 1 min 34 sec) 
Heartbeat CPU  0 instructions:   67000000 cycles:   71009197 heartbeat IPC: 0.96966 cumulative IPC: 0.94354 (Simulation time: 0 hr 1 min 35 sec) 
Heartbeat CPU  0 instructions:   68000000 cycles:   72064871 heartbeat IPC: 0.94726 cumulative IPC: 0.94359 (Simulation time: 0 hr 1 min 37 sec) 
Heartbeat CPU  0 instructions:   69000003 cycles:   73152904 heartbeat IPC: 0.91909 cumulative IPC: 0.94323 (Simulation time: 0 hr 1 min 38 sec) 
Heartbeat CPU  0 instructions:   70000001 cycles:   74334273 heartbeat IPC: 0.84647 cumulative IPC: 0.94169 (Simulation time: 0 hr 1 min 40 sec) 
Heartbeat CPU  0 instructions:   71000001 cycles:   75352782 heartbeat IPC: 0.98183 cumulative IPC: 0.94223 (Simulation time: 0 hr 1 min 41 sec) 
Heartbeat CPU  0 instructions:   72000000 cycles:   76424646 heartbeat IPC: 0.93295 cumulative IPC: 0.94210 (Simulation time: 0 hr 1 min 43 sec) 
Heartbeat CPU  0 instructions:   73000002 cycles:   77552458 heartbeat IPC: 0.88667 cumulative IPC: 0.94130 (Simulation time: 0 hr 1 min 44 sec) 
Heartbeat CPU  0 instructions:   74000000 cycles:   78629306 heartbeat IPC: 0.92863 cumulative IPC: 0.94112 (Simulation time: 0 hr 1 min 45 sec) 
Heartbeat CPU  0 instructions:   75000001 cycles:   79707070 heartbeat IPC: 0.92785 cumulative IPC: 0.94095 (Simulation time: 0 hr 1 min 47 sec) 
Heartbeat CPU  0 instructions:   76000000 cycles:   80683821 heartbeat IPC: 1.02380 cumulative IPC: 0.94195 (Simulation time: 0 hr 1 min 48 sec) 
Heartbeat CPU  0 instructions:   77000001 cycles:   81772009 heartbeat IPC: 0.91896 cumulative IPC: 0.94164 (Simulation time: 0 hr 1 min 50 sec) 
Heartbeat CPU  0 instructions:   78000000 cycles:   82822270 heartbeat IPC: 0.95214 cumulative IPC: 0.94178 (Simulation time: 0 hr 1 min 51 sec) 
Heartbeat CPU  0 instructions:   79000000 cycles:   83935310 heartbeat IPC: 0.89844 cumulative IPC: 0.94120 (Simulation time: 0 hr 1 min 53 sec) 
Heartbeat CPU  0 instructions:   80000000 cycles:   84937552 heartbeat IPC: 0.99776 cumulative IPC: 0.94187 (Simulation time: 0 hr 1 min 54 sec) 
Heartbeat CPU  0 instructions:   81000003 cycles:   85954201 heartbeat IPC: 0.98363 cumulative IPC: 0.94236 (Simulation time: 0 hr 1 min 55 sec) 
Heartbeat CPU  0 instructions:   82000002 cycles:   87049872 heartbeat IPC: 0.91268 cumulative IPC: 0.94199 (Simulation time: 0 hr 1 min 57 sec) 
Heartbeat CPU  0 instructions:   83000001 cycles:   88143490 heartbeat IPC: 0.91440 cumulative IPC: 0.94165 (Simulation time: 0 hr 1 min 58 sec) 
Heartbeat CPU  0 instructions:   84000000 cycles:   89097013 heartbeat IPC: 1.04874 cumulative IPC: 0.94279 (Simulation time: 0 hr 2 min 0 sec) 
Heartbeat CPU  0 instructions:   85000001 cycles:   90237175 heartbeat IPC: 0.87707 cumulative IPC: 0.94196 (Simulation time: 0 hr 2 min 1 sec) 
Heartbeat CPU  0 instructions:   86000000 cycles:   91399995 heartbeat IPC: 0.85998 cumulative IPC: 0.94092 (Simulation time: 0 hr 2 min 2 sec) 
Heartbeat CPU  0 instructions:   87000000 cycles:   92497788 heartbeat IPC: 0.91092 cumulative IPC: 0.94056 (Simulation time: 0 hr 2 min 4 sec) 
Heartbeat CPU  0 instructions:   88000000 cycles:   93591956 heartbeat IPC: 0.91394 cumulative IPC: 0.94025 (Simulation time: 0 hr 2 min 5 sec) 
Heartbeat CPU  0 instructions:   89000001 cycles:   94734313 heartbeat IPC: 0.87538 cumulative IPC: 0.93947 (Simulation time: 0 hr 2 min 7 sec) 
Heartbeat CPU  0 instructions:   90000000 cycles:   95868771 heartbeat IPC: 0.88148 cumulative IPC: 0.93878 (Simulation time: 0 hr 2 min 8 sec) 
Heartbeat CPU  0 instructions:   91000000 cycles:   97034050 heartbeat IPC: 0.85816 cumulative IPC: 0.93782 (Simulation time: 0 hr 2 min 9 sec) 
Heartbeat CPU  0 instructions:   92000000 cycles:   98069314 heartbeat IPC: 0.96594 cumulative IPC: 0.93811 (Simulation time: 0 hr 2 min 11 sec) 
Heartbeat CPU  0 instructions:   93000003 cycles:   99033362 heartbeat IPC: 1.03730 cumulative IPC: 0.93908 (Simulation time: 0 hr 2 min 12 sec) 
Heartbeat CPU  0 instructions:   94000003 cycles:  100162296 heartbeat IPC: 0.88579 cumulative IPC: 0.93848 (Simulation time: 0 hr 2 min 14 sec) 
Heartbeat CPU  0 instructions:   95000000 cycles:  101215316 heartbeat IPC: 0.94965 cumulative IPC: 0.93859 (Simulation time: 0 hr 2 min 15 sec) 
Heartbeat CPU  0 instructions:   96000000 cycles:  102305371 heartbeat IPC: 0.91738 cumulative IPC: 0.93837 (Simulation time: 0 hr 2 min 16 sec) 
Heartbeat CPU  0 instructions:   97000000 cycles:  103422889 heartbeat IPC: 0.89484 cumulative IPC: 0.93790 (Simulation time: 0 hr 2 min 18 sec) 
Heartbeat CPU  0 instructions:   98000001 cycles:  104415234 heartbeat IPC: 1.00772 cumulative IPC: 0.93856 (Simulation time: 0 hr 2 min 19 sec) 
Heartbeat CPU  0 instructions:   99000000 cycles:  105443373 heartbeat IPC: 0.97263 cumulative IPC: 0.93889 (Simulation time: 0 hr 2 min 21 sec) 
Heartbeat CPU  0 instructions:  100000000 cycles:  106500391 heartbeat IPC: 0.94606 cumulative IPC: 0.93896 (Simulation time: 0 hr 2 min 22 sec) 

Warmup complete CPU  0 instructions:  100000001 cycles:  106500393 (Simulation time: 0 hr 2 min 22 sec) 

Heartbeat CPU  0 instructions:  101000000 cycles:  109276474 heartbeat IPC: 0.36022 cumulative IPC: 0.36022 (Simulation time: 0 hr 2 min 24 sec) 
Heartbeat CPU  0 instructions:  102000001 cycles:  111935212 heartbeat IPC: 0.37612 cumulative IPC: 0.36800 (Simulation time: 0 hr 2 min 27 sec) 
Heartbeat CPU  0 instructions:  103000003 cycles:  114535965 heartbeat IPC: 0.38450 cumulative IPC: 0.37334 (Simulation time: 0 hr 2 min 29 sec) 
Heartbeat CPU  0 instructions:  104000000 cycles:  117056168 heartbeat IPC: 0.39679 cumulative IPC: 0.37894 (Simulation time: 0 hr 2 min 31 sec) 
Heartbeat CPU  0 instructions:  105000000 cycles:  119839757 heartbeat IPC: 0.35925 cumulative IPC: 0.37483 (Simulation time: 0 hr 2 min 33 sec) 
Heartbeat CPU  0 instructions:  106000000 cycles:  122528456 heartbeat IPC: 0.37193 cumulative IPC: 0.37434 (Simulation time: 0 hr 2 min 36 sec) 
Heartbeat CPU  0 instructions:  107000001 cycles:  125119026 heartbeat IPC: 0.38602 cumulative IPC: 0.37597 (Simulation time: 0 hr 2 min 38 sec) 
Heartbeat CPU  0 instructions:  108000000 cycles:  127782292 heartbeat IPC: 0.37548 cumulative IPC: 0.37591 (Simulation time: 0 hr 2 min 40 sec) 
Heartbeat CPU  0 instructions:  109000002 cycles:  130430631 heartbeat IPC: 0.37760 cumulative IPC: 0.37609 (Simulation time: 0 hr 2 min 43 sec) 
Heartbeat CPU  0 instructions:  110000002 cycles:  133073684 heartbeat IPC: 0.37835 cumulative IPC: 0.37632 (Simulation time: 0 hr 2 min 45 sec) 
Heartbeat CPU  0 instructions:  111000000 cycles:  135560528 heartbeat IPC: 0.40212 cumulative IPC: 0.37853 (Simulation time: 0 hr 2 min 47 sec) 
Heartbeat CPU  0 instructions:  112000000 cycles:  138304977 heartbeat IPC: 0.36437 cumulative IPC: 0.37730 (Simulation time: 0 hr 2 min 50 sec) 
Heartbeat CPU  0 instructions:  113000000 cycles:  140906827 heartbeat IPC: 0.38434 cumulative IPC: 0.37784 (Simulation time: 0 hr 2 min 52 sec) 
Heartbeat CPU  0 instructions:  114000000 cycles:  143725066 heartbeat IPC: 0.35483 cumulative IPC: 0.37609 (Simulation time: 0 hr 2 min 54 sec) 
Heartbeat CPU  0 instructions:  115000003 cycles:  146450303 heartbeat IPC: 0.36694 cumulative IPC: 0.37547 (Simulation time: 0 hr 2 min 56 sec) 
Heartbeat CPU  0 instructions:  116000000 cycles:  149133261 heartbeat IPC: 0.37272 cumulative IPC: 0.37530 (Simulation time: 0 hr 2 min 59 sec) 
Heartbeat CPU  0 instructions:  117000001 cycles:  151773489 heartbeat IPC: 0.37876 cumulative IPC: 0.37550 (Simulation time: 0 hr 3 min 1 sec) 
Heartbeat CPU  0 instructions:  118000000 cycles:  154392364 heartbeat IPC: 0.38184 cumulative IPC: 0.37585 (Simulation time: 0 hr 3 min 3 sec) 
Heartbeat CPU  0 instructions:  119000001 cycles:  157187908 heartbeat IPC: 0.35771 cumulative IPC: 0.37485 (Simulation time: 0 hr 3 min 6 sec) 
Heartbeat CPU  0 instructions:  120000000 cycles:  159843169 heartbeat IPC: 0.37661 cumulative IPC: 0.37493 (Simulation time: 0 hr 3 min 8 sec) 
Heartbeat CPU  0 instructions:  121000000 cycles:  162591459 heartbeat IPC: 0.36386 cumulative IPC: 0.37439 (Simulation time: 0 hr 3 min 10 sec) 
Heartbeat CPU  0 instructions:  122000001 cycles:  165276912 heartbeat IPC: 0.37238 cumulative IPC: 0.37430 (Simulation time: 0 hr 3 min 12 sec) 
Heartbeat CPU  0 instructions:  123000000 cycles:  167892050 heartbeat IPC: 0.38239 cumulative IPC: 0.37464 (Simulation time: 0 hr 3 min 15 sec) 
Heartbeat CPU  0 instructions:  124000000 cycles:  170590223 heartbeat IPC: 0.37062 cumulative IPC: 0.37447 (Simulation time: 0 hr 3 min 17 sec) 
Heartbeat CPU  0 instructions:  125000001 cycles:  173356028 heartbeat IPC: 0.36156 cumulative IPC: 0.37394 (Simulation time: 0 hr 3 min 19 sec) 
Heartbeat CPU  0 instructions:  126000000 cycles:  176097446 heartbeat IPC: 0.36477 cumulative IPC: 0.37358 (Simulation time: 0 hr 3 min 21 sec) 
Heartbeat CPU  0 instructions:  127000000 cycles:  178614682 heartbeat IPC: 0.39726 cumulative IPC: 0.37441 (Simulation time: 0 hr 3 min 24 sec) 
Heartbeat CPU  0 instructions:  128000000 cycles:  181312886 heartbeat IPC: 0.37062 cumulative IPC: 0.37427 (Simulation time: 0 hr 3 min 26 sec) 
Heartbeat CPU  0 instructions:  129000001 cycles:  184082639 heartbeat IPC: 0.36104 cumulative IPC: 0.37380 (Simulation time: 0 hr 3 min 28 sec) 
Heartbeat CPU  0 instructions:  130000000 cycles:  186781137 heartbeat IPC: 0.37058 cumulative IPC: 0.37369 (Simulation time: 0 hr 3 min 30 sec) 
Heartbeat CPU  0 instructions:  131000001 cycles:  189370514 heartbeat IPC: 0.38619 cumulative IPC: 0.37408 (Simulation time: 0 hr 3 min 33 sec) 
Heartbeat CPU  0 instructions:  132000000 cycles:  191984225 heartbeat IPC: 0.38260 cumulative IPC: 0.37434 (Simulation time: 0 hr 3 min 35 sec) 
Heartbeat CPU  0 instructions:  133000000 cycles:  194637352 heartbeat IPC: 0.37691 cumulative IPC: 0.37442 (Simulation time: 0 hr 3 min 37 sec) 
Heartbeat CPU  0 instructions:  134000001 cycles:  197338150 heartbeat IPC: 0.37026 cumulative IPC: 0.37429 (Simulation time: 0 hr 3 min 40 sec) 
Heartbeat CPU  0 instructions:  135000002 cycles:  200078432 heartbeat IPC: 0.36493 cumulative IPC: 0.37402 (Simulation time: 0 hr 3 min 42 sec) 
Heartbeat CPU  0 instructions:  136000000 cycles:  202560517 heartbeat IPC: 0.40289 cumulative IPC: 0.37477 (Simulation time: 0 hr 3 min 44 sec) 
Heartbeat CPU  0 instructions:  137000002 cycles:  205229302 heartbeat IPC: 0.37470 cumulative IPC: 0.37476 (Simulation time: 0 hr 3 min 46 sec) 
Heartbeat CPU  0 instructions:  138000000 cycles:  207925158 heartbeat IPC: 0.37094 cumulative IPC: 0.37466 (Simulation time: 0 hr 3 min 49 sec) 
Heartbeat CPU  0 instructions:  139000000 cycles:  210572064 heartbeat IPC: 0.37780 cumulative IPC: 0.37474 (Simulation time: 0 hr 3 min 51 sec) 
Heartbeat CPU  0 instructions:  140000000 cycles:  213325716 heartbeat IPC: 0.36315 cumulative IPC: 0.37444 (Simulation time: 0 hr 3 min 53 sec) 
Heartbeat CPU  0 instructions:  141000000 cycles:  215663997 heartbeat IPC: 0.42766 cumulative IPC: 0.37558 (Simulation time: 0 hr 3 min 55 sec) 
Heartbeat CPU  0 instructions:  142000000 cycles:  218045349 heartbeat IPC: 0.41993 cumulative IPC: 0.37653 (Simulation time: 0 hr 3 min 57 sec) 
Heartbeat CPU  0 instructions:  143000000 cycles:  220879704 heartbeat IPC: 0.35281 cumulative IPC: 0.37594 (Simulation time: 0 hr 4 min 0 sec) 
Heartbeat CPU  0 instructions:  144000000 cycles:  223671713 heartbeat IPC: 0.35817 cumulative IPC: 0.37552 (Simulation time: 0 hr 4 min 2 sec) 
Heartbeat CPU  0 instructions:  145000003 cycles:  226365771 heartbeat IPC: 0.37119 cumulative IPC: 0.37542 (Simulation time: 0 hr 4 min 4 sec) 
Heartbeat CPU  0 instructions:  146000000 cycles:  229109609 heartbeat IPC: 0.36445 cumulative IPC: 0.37518 (Simulation time: 0 hr 4 min 7 sec) 
Heartbeat CPU  0 instructions:  147000000 cycles:  231799475 heartbeat IPC: 0.37177 cumulative IPC: 0.37510 (Simulation time: 0 hr 4 min 9 sec) 
Heartbeat CPU  0 instructions:  148000000 cycles:  234526228 heartbeat IPC: 0.36674 cumulative IPC: 0.37492 (Simulation time: 0 hr 4 min 11 sec) 
Heartbeat CPU  0 instructions:  149000000 cycles:  236828737 heartbeat IPC: 0.43431 cumulative IPC: 0.37597 (Simulation time: 0 hr 4 min 14 sec) 
Heartbeat CPU  0 instructions:  150000000 cycles:  239017452 heartbeat IPC: 0.45689 cumulative IPC: 0.37731 (Simulation time: 0 hr 4 min 15 sec) 
Heartbeat CPU  0 instructions:  151000003 cycles:  241506936 heartbeat IPC: 0.40169 cumulative IPC: 0.37776 (Simulation time: 0 hr 4 min 18 sec) 
Heartbeat CPU  0 instructions:  152000000 cycles:  244338793 heartbeat IPC: 0.35312 cumulative IPC: 0.37725 (Simulation time: 0 hr 4 min 20 sec) 
Heartbeat CPU  0 instructions:  153000000 cycles:  247066290 heartbeat IPC: 0.36664 cumulative IPC: 0.37705 (Simulation time: 0 hr 4 min 22 sec) 
Heartbeat CPU  0 instructions:  154000000 cycles:  249775518 heartbeat IPC: 0.36911 cumulative IPC: 0.37690 (Simulation time: 0 hr 4 min 24 sec) 
Heartbeat CPU  0 instructions:  155000002 cycles:  252478387 heartbeat IPC: 0.36998 cumulative IPC: 0.37677 (Simulation time: 0 hr 4 min 26 sec) 
Heartbeat CPU  0 instructions:  156000000 cycles:  255203095 heartbeat IPC: 0.36701 cumulative IPC: 0.37659 (Simulation time: 0 hr 4 min 29 sec) 
Heartbeat CPU  0 instructions:  157000000 cycles:  257933617 heartbeat IPC: 0.36623 cumulative IPC: 0.37640 (Simulation time: 0 hr 4 min 31 sec) 
Heartbeat CPU  0 instructions:  158000002 cycles:  259907592 heartbeat IPC: 0.50659 cumulative IPC: 0.37808 (Simulation time: 0 hr 4 min 33 sec) 
Heartbeat CPU  0 instructions:  159000001 cycles:  262216660 heartbeat IPC: 0.43307 cumulative IPC: 0.37889 (Simulation time: 0 hr 4 min 35 sec) 
Heartbeat CPU  0 instructions:  160000000 cycles:  264929340 heartbeat IPC: 0.36864 cumulative IPC: 0.37872 (Simulation time: 0 hr 4 min 37 sec) 
Heartbeat CPU  0 instructions:  161000002 cycles:  267595474 heartbeat IPC: 0.37508 cumulative IPC: 0.37866 (Simulation time: 0 hr 4 min 39 sec) 
Heartbeat CPU  0 instructions:  162000000 cycles:  270456386 heartbeat IPC: 0.34954 cumulative IPC: 0.37815 (Simulation time: 0 hr 4 min 42 sec) 
Heartbeat CPU  0 instructions:  163000001 cycles:  273142291 heartbeat IPC: 0.37231 cumulative IPC: 0.37806 (Simulation time: 0 hr 4 min 44 sec) 
Heartbeat CPU  0 instructions:  164000000 cycles:  275841039 heartbeat IPC: 0.37054 cumulative IPC: 0.37794 (Simulation time: 0 hr 4 min 46 sec) 
Heartbeat CPU  0 instructions:  165000001 cycles:  278544120 heartbeat IPC: 0.36995 cumulative IPC: 0.37781 (Simulation time: 0 hr 4 min 48 sec) 
Heartbeat CPU  0 instructions:  166000001 cycles:  281269609 heartbeat IPC: 0.36691 cumulative IPC: 0.37764 (Simulation time: 0 hr 4 min 51 sec) 
Heartbeat CPU  0 instructions:  167000003 cycles:  284052386 heartbeat IPC: 0.35935 cumulative IPC: 0.37735 (Simulation time: 0 hr 4 min 53 sec) 
Heartbeat CPU  0 instructions:  168000000 cycles:  286782881 heartbeat IPC: 0.36623 cumulative IPC: 0.37719 (Simulation time: 0 hr 4 min 55 sec) 
Heartbeat CPU  0 instructions:  169000003 cycles:  289503452 heartbeat IPC: 0.36757 cumulative IPC: 0.37704 (Simulation time: 0 hr 4 min 58 sec) 
Heartbeat CPU  0 instructions:  170000001 cycles:  292218718 heartbeat IPC: 0.36829 cumulative IPC: 0.37691 (Simulation time: 0 hr 5 min 0 sec) 
Heartbeat CPU  0 instructions:  171000001 cycles:  294288378 heartbeat IPC: 0.48317 cumulative IPC: 0.37809 (Simulation time: 0 hr 5 min 2 sec) 
Heartbeat CPU  0 instructions:  172000000 cycles:  296707015 heartbeat IPC: 0.41346 cumulative IPC: 0.37854 (Simulation time: 0 hr 5 min 4 sec) 
Heartbeat CPU  0 instructions:  173000000 cycles:  299383573 heartbeat IPC: 0.37361 cumulative IPC: 0.37847 (Simulation time: 0 hr 5 min 6 sec) 
Heartbeat CPU  0 instructions:  174000000 cycles:  301846974 heartbeat IPC: 0.40594 cumulative IPC: 0.37881 (Simulation time: 0 hr 5 min 9 sec) 
Heartbeat CPU  0 instructions:  175000000 cycles:  304366300 heartbeat IPC: 0.39693 cumulative IPC: 0.37904 (Simulation time: 0 hr 5 min 11 sec) 
Heartbeat CPU  0 instructions:  176000000 cycles:  307049744 heartbeat IPC: 0.37266 cumulative IPC: 0.37896 (Simulation time: 0 hr 5 min 13 sec) 
Heartbeat CPU  0 instructions:  177000000 cycles:  309797934 heartbeat IPC: 0.36388 cumulative IPC: 0.37876 (Simulation time: 0 hr 5 min 15 sec) 
Heartbeat CPU  0 instructions:  178000003 cycles:  312436754 heartbeat IPC: 0.37896 cumulative IPC: 0.37876 (Simulation time: 0 hr 5 min 18 sec) 
Heartbeat CPU  0 instructions:  179000002 cycles:  315123378 heartbeat IPC: 0.37221 cumulative IPC: 0.37867 (Simulation time: 0 hr 5 min 20 sec) 
Heartbeat CPU  0 instructions:  180000000 cycles:  317719355 heartbeat IPC: 0.38521 cumulative IPC: 0.37875 (Simulation time: 0 hr 5 min 22 sec) 
Heartbeat CPU  0 instructions:  181000001 cycles:  320431485 heartbeat IPC: 0.36871 cumulative IPC: 0.37863 (Simulation time: 0 hr 5 min 24 sec) 
Heartbeat CPU  0 instructions:  182000000 cycles:  323276747 heartbeat IPC: 0.35146 cumulative IPC: 0.37827 (Simulation time: 0 hr 5 min 27 sec) 
Heartbeat CPU  0 instructions:  183000000 cycles:  325985899 heartbeat IPC: 0.36912 cumulative IPC: 0.37816 (Simulation time: 0 hr 5 min 29 sec) 
Heartbeat CPU  0 instructions:  184000000 cycles:  328672500 heartbeat IPC: 0.37222 cumulative IPC: 0.37809 (Simulation time: 0 hr 5 min 31 sec) 
Heartbeat CPU  0 instructions:  185000000 cycles:  331342173 heartbeat IPC: 0.37458 cumulative IPC: 0.37804 (Simulation time: 0 hr 5 min 34 sec) 
Heartbeat CPU  0 instructions:  186000003 cycles:  334056471 heartbeat IPC: 0.36842 cumulative IPC: 0.37793 (Simulation time: 0 hr 5 min 36 sec) 
Heartbeat CPU  0 instructions:  187000001 cycles:  336816064 heartbeat IPC: 0.36237 cumulative IPC: 0.37774 (Simulation time: 0 hr 5 min 38 sec) 
Heartbeat CPU  0 instructions:  188000000 cycles:  339533741 heartbeat IPC: 0.36796 cumulative IPC: 0.37763 (Simulation time: 0 hr 5 min 40 sec) 
Heartbeat CPU  0 instructions:  189000001 cycles:  342257040 heartbeat IPC: 0.36720 cumulative IPC: 0.37751 (Simulation time: 0 hr 5 min 42 sec) 
Heartbeat CPU  0 instructions:  190000000 cycles:  345035930 heartbeat IPC: 0.35986 cumulative IPC: 0.37730 (Simulation time: 0 hr 5 min 45 sec) 
Heartbeat CPU  0 instructions:  191000001 cycles:  347741375 heartbeat IPC: 0.36963 cumulative IPC: 0.37722 (Simulation time: 0 hr 5 min 47 sec) 
Heartbeat CPU  0 instructions:  192000000 cycles:  350493774 heartbeat IPC: 0.36332 cumulative IPC: 0.37706 (Simulation time: 0 hr 5 min 49 sec) 
Heartbeat CPU  0 instructions:  193000002 cycles:  353077252 heartbeat IPC: 0.38708 cumulative IPC: 0.37716 (Simulation time: 0 hr 5 min 51 sec) 
Heartbeat CPU  0 instructions:  194000001 cycles:  355012985 heartbeat IPC: 0.51660 cumulative IPC: 0.37825 (Simulation time: 0 hr 5 min 53 sec) 
Heartbeat CPU  0 instructions:  195000000 cycles:  357435768 heartbeat IPC: 0.41275 cumulative IPC: 0.37858 (Simulation time: 0 hr 5 min 55 sec) 
Heartbeat CPU  0 instructions:  196000000 cycles:  360322974 heartbeat IPC: 0.34636 cumulative IPC: 0.37822 (Simulation time: 0 hr 5 min 58 sec) 
Heartbeat CPU  0 instructions:  197000000 cycles:  362998897 heartbeat IPC: 0.37370 cumulative IPC: 0.37817 (Simulation time: 0 hr 6 min 0 sec) 
Heartbeat CPU  0 instructions:  198000000 cycles:  365711212 heartbeat IPC: 0.36869 cumulative IPC: 0.37807 (Simulation time: 0 hr 6 min 2 sec) 
Heartbeat CPU  0 instructions:  199000000 cycles:  368306083 heartbeat IPC: 0.38538 cumulative IPC: 0.37814 (Simulation time: 0 hr 6 min 4 sec) 
Heartbeat CPU  0 instructions:  200000000 cycles:  370828811 heartbeat IPC: 0.39640 cumulative IPC: 0.37832 (Simulation time: 0 hr 6 min 7 sec) 
Heartbeat CPU  0 instructions:  201000001 cycles:  373553573 heartbeat IPC: 0.36700 cumulative IPC: 0.37820 (Simulation time: 0 hr 6 min 9 sec) 
Heartbeat CPU  0 instructions:  202000002 cycles:  376212606 heartbeat IPC: 0.37608 cumulative IPC: 0.37818 (Simulation time: 0 hr 6 min 11 sec) 
Heartbeat CPU  0 instructions:  203000001 cycles:  378957466 heartbeat IPC: 0.36432 cumulative IPC: 0.37804 (Simulation time: 0 hr 6 min 13 sec) 
Heartbeat CPU  0 instructions:  204000000 cycles:  381719631 heartbeat IPC: 0.36203 cumulative IPC: 0.37788 (Simulation time: 0 hr 6 min 16 sec) 
Heartbeat CPU  0 instructions:  205000002 cycles:  384412050 heartbeat IPC: 0.37141 cumulative IPC: 0.37782 (Simulation time: 0 hr 6 min 18 sec) 
Heartbeat CPU  0 instructions:  206000002 cycles:  387110896 heartbeat IPC: 0.37053 cumulative IPC: 0.37775 (Simulation time: 0 hr 6 min 20 sec) 
Heartbeat CPU  0 instructions:  207000001 cycles:  389803962 heartbeat IPC: 0.37132 cumulative IPC: 0.37769 (Simulation time: 0 hr 6 min 22 sec) 
Heartbeat CPU  0 instructions:  208000000 cycles:  392547074 heartbeat IPC: 0.36455 cumulative IPC: 0.37756 (Simulation time: 0 hr 6 min 25 sec) 
Heartbeat CPU  0 instructions:  209000001 cycles:  395086301 heartbeat IPC: 0.39382 cumulative IPC: 0.37770 (Simulation time: 0 hr 6 min 27 sec) 
Heartbeat CPU  0 instructions:  210000000 cycles:  397298777 heartbeat IPC: 0.45198 cumulative IPC: 0.37827 (Simulation time: 0 hr 6 min 29 sec) 
Heartbeat CPU  0 instructions:  211000000 cycles:  399552185 heartbeat IPC: 0.44377 cumulative IPC: 0.37877 (Simulation time: 0 hr 6 min 31 sec) 
Heartbeat CPU  0 instructions:  212000000 cycles:  402329198 heartbeat IPC: 0.36010 cumulative IPC: 0.37860 (Simulation time: 0 hr 6 min 33 sec) 
Heartbeat CPU  0 instructions:  213000000 cycles:  405045281 heartbeat IPC: 0.36818 cumulative IPC: 0.37850 (Simulation time: 0 hr 6 min 36 sec) 
Heartbeat CPU  0 instructions:  214000000 cycles:  407853756 heartbeat IPC: 0.35607 cumulative IPC: 0.37829 (Simulation time: 0 hr 6 min 38 sec) 
Heartbeat CPU  0 instructions:  215000002 cycles:  410592177 heartbeat IPC: 0.36517 cumulative IPC: 0.37818 (Simulation time: 0 hr 6 min 40 sec) 
Heartbeat CPU  0 instructions:  216000000 cycles:  413305620 heartbeat IPC: 0.36853 cumulative IPC: 0.37809 (Simulation time: 0 hr 6 min 43 sec) 
Heartbeat CPU  0 instructions:  217000000 cycles:  415976949 heartbeat IPC: 0.37435 cumulative IPC: 0.37806 (Simulation time: 0 hr 6 min 45 sec) 
Heartbeat CPU  0 instructions:  218000003 cycles:  418698546 heartbeat IPC: 0.36743 cumulative IPC: 0.37797 (Simulation time: 0 hr 6 min 47 sec) 
Heartbeat CPU  0 instructions:  219000000 cycles:  421425855 heartbeat IPC: 0.36666 cumulative IPC: 0.37787 (Simulation time: 0 hr 6 min 49 sec) 
Heartbeat CPU  0 instructions:  220000000 cycles:  424101760 heartbeat IPC: 0.37371 cumulative IPC: 0.37783 (Simulation time: 0 hr 6 min 52 sec) 
Heartbeat CPU  0 instructions:  221000001 cycles:  426851292 heartbeat IPC: 0.36370 cumulative IPC: 0.37771 (Simulation time: 0 hr 6 min 54 sec) 
Heartbeat CPU  0 instructions:  222000001 cycles:  429606125 heartbeat IPC: 0.36300 cumulative IPC: 0.37759 (Simulation time: 0 hr 6 min 56 sec) 
Heartbeat CPU  0 instructions:  223000002 cycles:  432371185 heartbeat IPC: 0.36166 cumulative IPC: 0.37745 (Simulation time: 0 hr 6 min 58 sec) 
Heartbeat CPU  0 instructions:  224000000 cycles:  435141592 heartbeat IPC: 0.36096 cumulative IPC: 0.37731 (Simulation time: 0 hr 7 min 1 sec) 
Heartbeat CPU  0 instructions:  225000000 cycles:  437896872 heartbeat IPC: 0.36294 cumulative IPC: 0.37719 (Simulation time: 0 hr 7 min 3 sec) 
Heartbeat CPU  0 instructions:  226000001 cycles:  440687649 heartbeat IPC: 0.35832 cumulative IPC: 0.37703 (Simulation time: 0 hr 7 min 5 sec) 
Heartbeat CPU  0 instructions:  227000000 cycles:  443395022 heartbeat IPC: 0.36936 cumulative IPC: 0.37697 (Simulation time: 0 hr 7 min 7 sec) 
Heartbeat CPU  0 instructions:  228000000 cycles:  446112603 heartbeat IPC: 0.36797 cumulative IPC: 0.37690 (Simulation time: 0 hr 7 min 9 sec) 
Heartbeat CPU  0 instructions:  229000000 cycles:  448446308 heartbeat IPC: 0.42850 cumulative IPC: 0.37725 (Simulation time: 0 hr 7 min 11 sec) 
Heartbeat CPU  0 instructions:  230000000 cycles:  450491262 heartbeat IPC: 0.48901 cumulative IPC: 0.37792 (Simulation time: 0 hr 7 min 13 sec) 
Heartbeat CPU  0 instructions:  231000001 cycles:  453246087 heartbeat IPC: 0.36300 cumulative IPC: 0.37780 (Simulation time: 0 hr 7 min 16 sec) 
Heartbeat CPU  0 instructions:  232000000 cycles:  455725730 heartbeat IPC: 0.40328 cumulative IPC: 0.37798 (Simulation time: 0 hr 7 min 18 sec) 
Heartbeat CPU  0 instructions:  233000002 cycles:  458254331 heartbeat IPC: 0.39548 cumulative IPC: 0.37811 (Simulation time: 0 hr 7 min 20 sec) 
Heartbeat CPU  0 instructions:  234000002 cycles:  460934928 heartbeat IPC: 0.37305 cumulative IPC: 0.37807 (Simulation time: 0 hr 7 min 22 sec) 
Heartbeat CPU  0 instructions:  235000002 cycles:  463641835 heartbeat IPC: 0.36943 cumulative IPC: 0.37800 (Simulation time: 0 hr 7 min 25 sec) 
Heartbeat CPU  0 instructions:  236000000 cycles:  466262893 heartbeat IPC: 0.38152 cumulative IPC: 0.37803 (Simulation time: 0 hr 7 min 27 sec) 
Heartbeat CPU  0 instructions:  237000001 cycles:  468913681 heartbeat IPC: 0.37725 cumulative IPC: 0.37802 (Simulation time: 0 hr 7 min 29 sec) 
Heartbeat CPU  0 instructions:  238000002 cycles:  471684474 heartbeat IPC: 0.36091 cumulative IPC: 0.37789 (Simulation time: 0 hr 7 min 31 sec) 
Heartbeat CPU  0 instructions:  239000000 cycles:  474282602 heartbeat IPC: 0.38489 cumulative IPC: 0.37794 (Simulation time: 0 hr 7 min 34 sec) 
Heartbeat CPU  0 instructions:  240000000 cycles:  477036735 heartbeat IPC: 0.36309 cumulative IPC: 0.37783 (Simulation time: 0 hr 7 min 36 sec) 
Heartbeat CPU  0 instructions:  241000001 cycles:  479819390 heartbeat IPC: 0.35937 cumulative IPC: 0.37769 (Simulation time: 0 hr 7 min 38 sec) 
Heartbeat CPU  0 instructions:  242000000 cycles:  482494071 heartbeat IPC: 0.37388 cumulative IPC: 0.37767 (Simulation time: 0 hr 7 min 41 sec) 
Heartbeat CPU  0 instructions:  243000002 cycles:  485285882 heartbeat IPC: 0.35819 cumulative IPC: 0.37752 (Simulation time: 0 hr 7 min 43 sec) 
Heartbeat CPU  0 instructions:  244000000 cycles:  488014933 heartbeat IPC: 0.36643 cumulative IPC: 0.37744 (Simulation time: 0 hr 7 min 45 sec) 
Heartbeat CPU  0 instructions:  245000001 cycles:  490652989 heartbeat IPC: 0.37907 cumulative IPC: 0.37745 (Simulation time: 0 hr 7 min 47 sec) 
Heartbeat CPU  0 instructions:  246000000 cycles:  493124384 heartbeat IPC: 0.40463 cumulative IPC: 0.37763 (Simulation time: 0 hr 7 min 50 sec) 
Heartbeat CPU  0 instructions:  247000001 cycles:  495877985 heartbeat IPC: 0.36316 cumulative IPC: 0.37753 (Simulation time: 0 hr 7 min 52 sec) 
Heartbeat CPU  0 instructions:  248000000 cycles:  498399836 heartbeat IPC: 0.39653 cumulative IPC: 0.37765 (Simulation time: 0 hr 7 min 54 sec) 
Heartbeat CPU  0 instructions:  249000000 cycles:  501078333 heartbeat IPC: 0.37334 cumulative IPC: 0.37762 (Simulation time: 0 hr 7 min 57 sec) 
Heartbeat CPU  0 instructions:  250000000 cycles:  503751541 heartbeat IPC: 0.37408 cumulative IPC: 0.37759 (Simulation time: 0 hr 7 min 59 sec) 
Heartbeat CPU  0 instructions:  251000000 cycles:  506099578 heartbeat IPC: 0.42589 cumulative IPC: 0.37788 (Simulation time: 0 hr 8 min 1 sec) 
Heartbeat CPU  0 instructions:  252000000 cycles:  508384783 heartbeat IPC: 0.43760 cumulative IPC: 0.37822 (Simulation time: 0 hr 8 min 3 sec) 
Heartbeat CPU  0 instructions:  253000001 cycles:  510812857 heartbeat IPC: 0.41185 cumulative IPC: 0.37842 (Simulation time: 0 hr 8 min 5 sec) 
Heartbeat CPU  0 instructions:  254000000 cycles:  513411924 heartbeat IPC: 0.38475 cumulative IPC: 0.37846 (Simulation time: 0 hr 8 min 7 sec) 
Heartbeat CPU  0 instructions:  255000001 cycles:  515794205 heartbeat IPC: 0.41977 cumulative IPC: 0.37870 (Simulation time: 0 hr 8 min 9 sec) 
Heartbeat CPU  0 instructions:  256000000 cycles:  518580905 heartbeat IPC: 0.35885 cumulative IPC: 0.37857 (Simulation time: 0 hr 8 min 12 sec) 
Heartbeat CPU  0 instructions:  257000002 cycles:  521376993 heartbeat IPC: 0.35764 cumulative IPC: 0.37843 (Simulation time: 0 hr 8 min 14 sec) 
Heartbeat CPU  0 instructions:  258000001 cycles:  524101024 heartbeat IPC: 0.36710 cumulative IPC: 0.37835 (Simulation time: 0 hr 8 min 16 sec) 
Heartbeat CPU  0 instructions:  259000000 cycles:  526776476 heartbeat IPC: 0.37377 cumulative IPC: 0.37832 (Simulation time: 0 hr 8 min 18 sec) 
Heartbeat CPU  0 instructions:  260000000 cycles:  529458770 heartbeat IPC: 0.37282 cumulative IPC: 0.37829 (Simulation time: 0 hr 8 min 21 sec) 
Heartbeat CPU  0 instructions:  261000001 cycles:  532252984 heartbeat IPC: 0.35788 cumulative IPC: 0.37815 (Simulation time: 0 hr 8 min 23 sec) 
Heartbeat CPU  0 instructions:  262000003 cycles:  534896160 heartbeat IPC: 0.37833 cumulative IPC: 0.37815 (Simulation time: 0 hr 8 min 25 sec) 
Heartbeat CPU  0 instructions:  263000002 cycles:  537681338 heartbeat IPC: 0.35904 cumulative IPC: 0.37803 (Simulation time: 0 hr 8 min 27 sec) 
Heartbeat CPU  0 instructions:  264000000 cycles:  540296731 heartbeat IPC: 0.38235 cumulative IPC: 0.37806 (Simulation time: 0 hr 8 min 30 sec) 
Heartbeat CPU  0 instructions:  265000000 cycles:  543028888 heartbeat IPC: 0.36601 cumulative IPC: 0.37798 (Simulation time: 0 hr 8 min 32 sec) 
Heartbeat CPU  0 instructions:  266000001 cycles:  545836742 heartbeat IPC: 0.35614 cumulative IPC: 0.37784 (Simulation time: 0 hr 8 min 34 sec) 
Heartbeat CPU  0 instructions:  267000003 cycles:  548534709 heartbeat IPC: 0.37065 cumulative IPC: 0.37780 (Simulation time: 0 hr 8 min 36 sec) 
Heartbeat CPU  0 instructions:  268000000 cycles:  551296714 heartbeat IPC: 0.36205 cumulative IPC: 0.37770 (Simulation time: 0 hr 8 min 39 sec) 
Heartbeat CPU  0 instructions:  269000001 cycles:  554030520 heartbeat IPC: 0.36579 cumulative IPC: 0.37763 (Simulation time: 0 hr 8 min 41 sec) 
Heartbeat CPU  0 instructions:  270000000 cycles:  556889160 heartbeat IPC: 0.34982 cumulative IPC: 0.37745 (Simulation time: 0 hr 8 min 43 sec) 
Heartbeat CPU  0 instructions:  271000000 cycles:  559605081 heartbeat IPC: 0.36820 cumulative IPC: 0.37740 (Simulation time: 0 hr 8 min 45 sec) 
Heartbeat CPU  0 instructions:  272000000 cycles:  562312772 heartbeat IPC: 0.36932 cumulative IPC: 0.37735 (Simulation time: 0 hr 8 min 48 sec) 
Heartbeat CPU  0 instructions:  273000001 cycles:  564692143 heartbeat IPC: 0.42028 cumulative IPC: 0.37757 (Simulation time: 0 hr 8 min 50 sec) 
Heartbeat CPU  0 instructions:  274000000 cycles:  566936264 heartbeat IPC: 0.44561 cumulative IPC: 0.37790 (Simulation time: 0 hr 8 min 52 sec) 
Heartbeat CPU  0 instructions:  275000001 cycles:  569393003 heartbeat IPC: 0.40704 cumulative IPC: 0.37806 (Simulation time: 0 hr 8 min 54 sec) 
Heartbeat CPU  0 instructions:  276000000 cycles:  572017221 heartbeat IPC: 0.38107 cumulative IPC: 0.37807 (Simulation time: 0 hr 8 min 56 sec) 
Heartbeat CPU  0 instructions:  277000000 cycles:  574789302 heartbeat IPC: 0.36074 cumulative IPC: 0.37797 (Simulation time: 0 hr 8 min 58 sec) 
Heartbeat CPU  0 instructions:  278000001 cycles:  577623408 heartbeat IPC: 0.35285 cumulative IPC: 0.37782 (Simulation time: 0 hr 9 min 1 sec) 
Heartbeat CPU  0 instructions:  279000002 cycles:  580362134 heartbeat IPC: 0.36513 cumulative IPC: 0.37775 (Simulation time: 0 hr 9 min 3 sec) 
Heartbeat CPU  0 instructions:  280000000 cycles:  583038989 heartbeat IPC: 0.37357 cumulative IPC: 0.37772 (Simulation time: 0 hr 9 min 5 sec) 
Heartbeat CPU  0 instructions:  281000000 cycles:  585746345 heartbeat IPC: 0.36936 cumulative IPC: 0.37768 (Simulation time: 0 hr 9 min 8 sec) 
Heartbeat CPU  0 instructions:  282000003 cycles:  588525866 heartbeat IPC: 0.35978 cumulative IPC: 0.37757 (Simulation time: 0 hr 9 min 10 sec) 
Heartbeat CPU  0 instructions:  283000003 cycles:  591236165 heartbeat IPC: 0.36896 cumulative IPC: 0.37753 (Simulation time: 0 hr 9 min 12 sec) 
Heartbeat CPU  0 instructions:  284000000 cycles:  593848313 heartbeat IPC: 0.38283 cumulative IPC: 0.37755 (Simulation time: 0 hr 9 min 14 sec) 
Heartbeat CPU  0 instructions:  285000001 cycles:  596630665 heartbeat IPC: 0.35941 cumulative IPC: 0.37745 (Simulation time: 0 hr 9 min 17 sec) 
Heartbeat CPU  0 instructions:  286000003 cycles:  599295686 heartbeat IPC: 0.37523 cumulative IPC: 0.37744 (Simulation time: 0 hr 9 min 19 sec) 
Heartbeat CPU  0 instructions:  287000000 cycles:  602021634 heartbeat IPC: 0.36684 cumulative IPC: 0.37738 (Simulation time: 0 hr 9 min 21 sec) 
Heartbeat CPU  0 instructions:  288000000 cycles:  604790619 heartbeat IPC: 0.36114 cumulative IPC: 0.37729 (Simulation time: 0 hr 9 min 23 sec) 
Heartbeat CPU  0 instructions:  289000000 cycles:  607500229 heartbeat IPC: 0.36906 cumulative IPC: 0.37725 (Simulation time: 0 hr 9 min 26 sec) 
Heartbeat CPU  0 instructions:  290000000 cycles:  610301225 heartbeat IPC: 0.35702 cumulative IPC: 0.37713 (Simulation time: 0 hr 9 min 28 sec) 
Heartbeat CPU  0 instructions:  291000000 cycles:  613025440 heartbeat IPC: 0.36708 cumulative IPC: 0.37708 (Simulation time: 0 hr 9 min 30 sec) 
Heartbeat CPU  0 instructions:  292000000 cycles:  615708192 heartbeat IPC: 0.37275 cumulative IPC: 0.37706 (Simulation time: 0 hr 9 min 32 sec) 
Heartbeat CPU  0 instructions:  293000002 cycles:  618519800 heartbeat IPC: 0.35567 cumulative IPC: 0.37694 (Simulation time: 0 hr 9 min 34 sec) 
Heartbeat CPU  0 instructions:  294000003 cycles:  621212724 heartbeat IPC: 0.37134 cumulative IPC: 0.37691 (Simulation time: 0 hr 9 min 37 sec) 
Heartbeat CPU  0 instructions:  295000003 cycles:  623963337 heartbeat IPC: 0.36356 cumulative IPC: 0.37684 (Simulation time: 0 hr 9 min 39 sec) 
Heartbeat CPU  0 instructions:  296000000 cycles:  626572977 heartbeat IPC: 0.38319 cumulative IPC: 0.37687 (Simulation time: 0 hr 9 min 41 sec) 
Heartbeat CPU  0 instructions:  297000001 cycles:  628705764 heartbeat IPC: 0.46887 cumulative IPC: 0.37725 (Simulation time: 0 hr 9 min 43 sec) 
Heartbeat CPU  0 instructions:  298000000 cycles:  631097886 heartbeat IPC: 0.41804 cumulative IPC: 0.37743 (Simulation time: 0 hr 9 min 45 sec) 
Heartbeat CPU  0 instructions:  299000000 cycles:  633728154 heartbeat IPC: 0.38019 cumulative IPC: 0.37745 (Simulation time: 0 hr 9 min 47 sec) 
Heartbeat CPU  0 instructions:  300000000 cycles:  636230801 heartbeat IPC: 0.39958 cumulative IPC: 0.37755 (Simulation time: 0 hr 9 min 50 sec) 
Heartbeat CPU  0 instructions:  301000001 cycles:  638717575 heartbeat IPC: 0.40213 cumulative IPC: 0.37767 (Simulation time: 0 hr 9 min 52 sec) 
Heartbeat CPU  0 instructions:  302000000 cycles:  641295583 heartbeat IPC: 0.38790 cumulative IPC: 0.37771 (Simulation time: 0 hr 9 min 54 sec) 
Heartbeat CPU  0 instructions:  303000003 cycles:  644032718 heartbeat IPC: 0.36535 cumulative IPC: 0.37765 (Simulation time: 0 hr 9 min 57 sec) 
Heartbeat CPU  0 instructions:  304000000 cycles:  646692327 heartbeat IPC: 0.37599 cumulative IPC: 0.37764 (Simulation time: 0 hr 9 min 59 sec) 
Heartbeat CPU  0 instructions:  305000000 cycles:  649413139 heartbeat IPC: 0.36754 cumulative IPC: 0.37759 (Simulation time: 0 hr 10 min 1 sec) 
Heartbeat CPU  0 instructions:  306000002 cycles:  652239013 heartbeat IPC: 0.35387 cumulative IPC: 0.37747 (Simulation time: 0 hr 10 min 4 sec) 
Heartbeat CPU  0 instructions:  307000000 cycles:  654964086 heartbeat IPC: 0.36696 cumulative IPC: 0.37742 (Simulation time: 0 hr 10 min 6 sec) 
Heartbeat CPU  0 instructions:  308000000 cycles:  657647412 heartbeat IPC: 0.37267 cumulative IPC: 0.37739 (Simulation time: 0 hr 10 min 8 sec) 
Heartbeat CPU  0 instructions:  309000000 cycles:  660343808 heartbeat IPC: 0.37087 cumulative IPC: 0.37736 (Simulation time: 0 hr 10 min 10 sec) 
Heartbeat CPU  0 instructions:  310000000 cycles:  663088693 heartbeat IPC: 0.36431 cumulative IPC: 0.37730 (Simulation time: 0 hr 10 min 13 sec) 
Heartbeat CPU  0 instructions:  311000003 cycles:  665802539 heartbeat IPC: 0.36848 cumulative IPC: 0.37726 (Simulation time: 0 hr 10 min 15 sec) 
Heartbeat CPU  0 instructions:  312000000 cycles:  668417434 heartbeat IPC: 0.38242 cumulative IPC: 0.37728 (Simulation time: 0 hr 10 min 17 sec) 
Heartbeat CPU  0 instructions:  313000000 cycles:  671166848 heartbeat IPC: 0.36371 cumulative IPC: 0.37721 (Simulation time: 0 hr 10 min 19 sec) 
Heartbeat CPU  0 instructions:  314000002 cycles:  673860175 heartbeat IPC: 0.37129 cumulative IPC: 0.37719 (Simulation time: 0 hr 10 min 22 sec) 
Heartbeat CPU  0 instructions:  315000002 cycles:  676531490 heartbeat IPC: 0.37435 cumulative IPC: 0.37717 (Simulation time: 0 hr 10 min 24 sec) 
Heartbeat CPU  0 instructions:  316000000 cycles:  679274003 heartbeat IPC: 0.36463 cumulative IPC: 0.37711 (Simulation time: 0 hr 10 min 26 sec) 
Heartbeat CPU  0 instructions:  317000001 cycles:  682023967 heartbeat IPC: 0.36364 cumulative IPC: 0.37705 (Simulation time: 0 hr 10 min 28 sec) 
Heartbeat CPU  0 instructions:  318000000 cycles:  684780237 heartbeat IPC: 0.36281 cumulative IPC: 0.37698 (Simulation time: 0 hr 10 min 31 sec) 
Heartbeat CPU  0 instructions:  319000000 cycles:  687523607 heartbeat IPC: 0.36452 cumulative IPC: 0.37692 (Simulation time: 0 hr 10 min 33 sec) 
Heartbeat CPU  0 instructions:  320000000 cycles:  690201149 heartbeat IPC: 0.37348 cumulative IPC: 0.37691 (Simulation time: 0 hr 10 min 35 sec) 
Heartbeat CPU  0 instructions:  321000003 cycles:  692730953 heartbeat IPC: 0.39529 cumulative IPC: 0.37698 (Simulation time: 0 hr 10 min 37 sec) 
Heartbeat CPU  0 instructions:  322000002 cycles:  695218357 heartbeat IPC: 0.40203 cumulative IPC: 0.37709 (Simulation time: 0 hr 10 min 39 sec) 
Heartbeat CPU  0 instructions:  323000000 cycles:  697337807 heartbeat IPC: 0.47182 cumulative IPC: 0.37743 (Simulation time: 0 hr 10 min 41 sec) 
Heartbeat CPU  0 instructions:  324000000 cycles:  699736609 heartbeat IPC: 0.41687 cumulative IPC: 0.37759 (Simulation time: 0 hr 10 min 43 sec) 
Heartbeat CPU  0 instructions:  325000000 cycles:  702365196 heartbeat IPC: 0.38043 cumulative IPC: 0.37760 (Simulation time: 0 hr 10 min 46 sec) 
Heartbeat CPU  0 instructions:  326000000 cycles:  704987347 heartbeat IPC: 0.38137 cumulative IPC: 0.37762 (Simulation time: 0 hr 10 min 48 sec) 
Heartbeat CPU  0 instructions:  327000002 cycles:  707674484 heartbeat IPC: 0.37214 cumulative IPC: 0.37759 (Simulation time: 0 hr 10 min 50 sec) 
Heartbeat CPU  0 instructions:  328000000 cycles:  710303335 heartbeat IPC: 0.38039 cumulative IPC: 0.37761 (Simulation time: 0 hr 10 min 53 sec) 
Heartbeat CPU  0 instructions:  329000001 cycles:  713009685 heartbeat IPC: 0.36950 cumulative IPC: 0.37757 (Simulation time: 0 hr 10 min 55 sec) 
Heartbeat CPU  0 instructions:  330000000 cycles:  715816464 heartbeat IPC: 0.35628 cumulative IPC: 0.37747 (Simulation time: 0 hr 10 min 57 sec) 
Heartbeat CPU  0 instructions:  331000000 cycles:  718626608 heartbeat IPC: 0.35585 cumulative IPC: 0.37737 (Simulation time: 0 hr 10 min 59 sec) 
Heartbeat CPU  0 instructions:  332000000 cycles:  721284488 heartbeat IPC: 0.37624 cumulative IPC: 0.37737 (Simulation time: 0 hr 11 min 2 sec) 
Heartbeat CPU  0 instructions:  333000000 cycles:  723942270 heartbeat IPC: 0.37625 cumulative IPC: 0.37736 (Simulation time: 0 hr 11 min 4 sec) 
Heartbeat CPU  0 instructions:  334000001 cycles:  726687437 heartbeat IPC: 0.36428 cumulative IPC: 0.37731 (Simulation time: 0 hr 11 min 6 sec) 
Heartbeat CPU  0 instructions:  335000003 cycles:  729425728 heartbeat IPC: 0.36519 cumulative IPC: 0.37725 (Simulation time: 0 hr 11 min 8 sec) 
Heartbeat CPU  0 instructions:  336000000 cycles:  732079148 heartbeat IPC: 0.37687 cumulative IPC: 0.37725 (Simulation time: 0 hr 11 min 11 sec) 
Heartbeat CPU  0 instructions:  337000000 cycles:  734784742 heartbeat IPC: 0.36960 cumulative IPC: 0.37722 (Simulation time: 0 hr 11 min 13 sec) 
Heartbeat CPU  0 instructions:  338000000 cycles:  737525758 heartbeat IPC: 0.36483 cumulative IPC: 0.37716 (Simulation time: 0 hr 11 min 15 sec) 
Heartbeat CPU  0 instructions:  339000000 cycles:  740165309 heartbeat IPC: 0.37885 cumulative IPC: 0.37717 (Simulation time: 0 hr 11 min 17 sec) 
Heartbeat CPU  0 instructions:  340000000 cycles:  742895021 heartbeat IPC: 0.36634 cumulative IPC: 0.37712 (Simulation time: 0 hr 11 min 20 sec) 
Heartbeat CPU  0 instructions:  341000002 cycles:  745699443 heartbeat IPC: 0.35658 cumulative IPC: 0.37703 (Simulation time: 0 hr 11 min 22 sec) 
Heartbeat CPU  0 instructions:  342000000 cycles:  748399004 heartbeat IPC: 0.37043 cumulative IPC: 0.37701 (Simulation time: 0 hr 11 min 24 sec) 
Heartbeat CPU  0 instructions:  343000000 cycles:  751172778 heartbeat IPC: 0.36052 cumulative IPC: 0.37694 (Simulation time: 0 hr 11 min 27 sec) 
Heartbeat CPU  0 instructions:  344000000 cycles:  753884585 heartbeat IPC: 0.36876 cumulative IPC: 0.37690 (Simulation time: 0 hr 11 min 29 sec) 
Heartbeat CPU  0 instructions:  345000000 cycles:  756416800 heartbeat IPC: 0.39491 cumulative IPC: 0.37697 (Simulation time: 0 hr 11 min 31 sec) 
Heartbeat CPU  0 instructions:  346000001 cycles:  759003337 heartbeat IPC: 0.38662 cumulative IPC: 0.37701 (Simulation time: 0 hr 11 min 33 sec) 
Heartbeat CPU  0 instructions:  347000000 cycles:  761068827 heartbeat IPC: 0.48415 cumulative IPC: 0.37735 (Simulation time: 0 hr 11 min 35 sec) 
Heartbeat CPU  0 instructions:  348000000 cycles:  763330902 heartbeat IPC: 0.44207 cumulative IPC: 0.37757 (Simulation time: 0 hr 11 min 37 sec) 
Heartbeat CPU  0 instructions:  349000003 cycles:  766007303 heartbeat IPC: 0.37364 cumulative IPC: 0.37755 (Simulation time: 0 hr 11 min 40 sec) 
Heartbeat CPU  0 instructions:  350000002 cycles:  768677139 heartbeat IPC: 0.37455 cumulative IPC: 0.37754 (Simulation time: 0 hr 11 min 42 sec) 
Heartbeat CPU  0 instructions:  351000001 cycles:  771302342 heartbeat IPC: 0.38092 cumulative IPC: 0.37756 (Simulation time: 0 hr 11 min 44 sec) 
Heartbeat CPU  0 instructions:  352000000 cycles:  774016421 heartbeat IPC: 0.36845 cumulative IPC: 0.37752 (Simulation time: 0 hr 11 min 46 sec) 
Heartbeat CPU  0 instructions:  353000000 cycles:  776826655 heartbeat IPC: 0.35584 cumulative IPC: 0.37743 (Simulation time: 0 hr 11 min 49 sec) 
Heartbeat CPU  0 instructions:  354000001 cycles:  779562146 heartbeat IPC: 0.36557 cumulative IPC: 0.37738 (Simulation time: 0 hr 11 min 51 sec) 
Heartbeat CPU  0 instructions:  355000002 cycles:  782271302 heartbeat IPC: 0.36912 cumulative IPC: 0.37735 (Simulation time: 0 hr 11 min 53 sec) 
Heartbeat CPU  0 instructions:  356000000 cycles:  784913748 heartbeat IPC: 0.37844 cumulative IPC: 0.37735 (Simulation time: 0 hr 11 min 55 sec) 
Heartbeat CPU  0 instructions:  357000000 cycles:  787649946 heartbeat IPC: 0.36547 cumulative IPC: 0.37730 (Simulation time: 0 hr 11 min 58 sec) 
Heartbeat CPU  0 instructions:  358000000 cycles:  790292938 heartbeat IPC: 0.37836 cumulative IPC: 0.37731 (Simulation time: 0 hr 12 min 0 sec) 
Heartbeat CPU  0 instructions:  359000001 cycles:  792977508 heartbeat IPC: 0.37250 cumulative IPC: 0.37729 (Simulation time: 0 hr 12 min 2 sec) 
Heartbeat CPU  0 instructions:  360000000 cycles:  795721177 heartbeat IPC: 0.36448 cumulative IPC: 0.37724 (Simulation time: 0 hr 12 min 4 sec) 
Heartbeat CPU  0 instructions:  361000002 cycles:  798365472 heartbeat IPC: 0.37817 cumulative IPC: 0.37724 (Simulation time: 0 hr 12 min 7 sec) 
Heartbeat CPU  0 instructions:  362000000 cycles:  801131546 heartbeat IPC: 0.36152 cumulative IPC: 0.37718 (Simulation time: 0 hr 12 min 9 sec) 
Heartbeat CPU  0 instructions:  363000000 cycles:  803882077 heartbeat IPC: 0.36357 cumulative IPC: 0.37712 (Simulation time: 0 hr 12 min 11 sec) 
Heartbeat CPU  0 instructions:  364000000 cycles:  806612494 heartbeat IPC: 0.36624 cumulative IPC: 0.37708 (Simulation time: 0 hr 12 min 14 sec) 
Heartbeat CPU  0 instructions:  365000001 cycles:  809354221 heartbeat IPC: 0.36473 cumulative IPC: 0.37703 (Simulation time: 0 hr 12 min 16 sec) 
Heartbeat CPU  0 instructions:  366000000 cycles:  812087611 heartbeat IPC: 0.36585 cumulative IPC: 0.37699 (Simulation time: 0 hr 12 min 18 sec) 
Heartbeat CPU  0 instructions:  367000000 cycles:  814628914 heartbeat IPC: 0.39350 cumulative IPC: 0.37705 (Simulation time: 0 hr 12 min 20 sec) 
Heartbeat CPU  0 instructions:  368000000 cycles:  817202329 heartbeat IPC: 0.38859 cumulative IPC: 0.37709 (Simulation time: 0 hr 12 min 23 sec) 
Heartbeat CPU  0 instructions:  369000000 cycles:  819277912 heartbeat IPC: 0.48179 cumulative IPC: 0.37740 (Simulation time: 0 hr 12 min 25 sec) 
Heartbeat CPU  0 instructions:  370000000 cycles:  821494431 heartbeat IPC: 0.45116 cumulative IPC: 0.37763 (Simulation time: 0 hr 12 min 27 sec) 
Heartbeat CPU  0 instructions:  371000000 cycles:  824134932 heartbeat IPC: 0.37872 cumulative IPC: 0.37763 (Simulation time: 0 hr 12 min 29 sec) 
Heartbeat CPU  0 instructions:  372000000 cycles:  826985106 heartbeat IPC: 0.35086 cumulative IPC: 0.37752 (Simulation time: 0 hr 12 min 31 sec) 
Heartbeat CPU  0 instructions:  373000000 cycles:  829696448 heartbeat IPC: 0.36882 cumulative IPC: 0.37749 (Simulation time: 0 hr 12 min 33 sec) 
Heartbeat CPU  0 instructions:  374000003 cycles:  832371827 heartbeat IPC: 0.37378 cumulative IPC: 0.37748 (Simulation time: 0 hr 12 min 36 sec) 
Heartbeat CPU  0 instructions:  375000000 cycles:  835015909 heartbeat IPC: 0.37820 cumulative IPC: 0.37748 (Simulation time: 0 hr 12 min 38 sec) 
Heartbeat CPU  0 instructions:  376000000 cycles:  837772567 heartbeat IPC: 0.36276 cumulative IPC: 0.37742 (Simulation time: 0 hr 12 min 40 sec) 
Heartbeat CPU  0 instructions:  377000003 cycles:  840427874 heartbeat IPC: 0.37661 cumulative IPC: 0.37742 (Simulation time: 0 hr 12 min 42 sec) 
Heartbeat CPU  0 instructions:  378000000 cycles:  843111641 heartbeat IPC: 0.37261 cumulative IPC: 0.37740 (Simulation time: 0 hr 12 min 45 sec) 
Heartbeat CPU  0 instructions:  379000002 cycles:  845881669 heartbeat IPC: 0.36101 cumulative IPC: 0.37734 (Simulation time: 0 hr 12 min 47 sec) 
Heartbeat CPU  0 instructions:  380000000 cycles:  848551922 heartbeat IPC: 0.37450 cumulative IPC: 0.37733 (Simulation time: 0 hr 12 min 49 sec) 
Heartbeat CPU  0 instructions:  381000000 cycles:  851344518 heartbeat IPC: 0.35809 cumulative IPC: 0.37726 (Simulation time: 0 hr 12 min 51 sec) 
Heartbeat CPU  0 instructions:  382000001 cycles:  854065925 heartbeat IPC: 0.36746 cumulative IPC: 0.37722 (Simulation time: 0 hr 12 min 54 sec) 
Heartbeat CPU  0 instructions:  383000002 cycles:  856717986 heartbeat IPC: 0.37707 cumulative IPC: 0.37722 (Simulation time: 0 hr 12 min 56 sec) 
Heartbeat CPU  0 instructions:  384000000 cycles:  858816976 heartbeat IPC: 0.47642 cumulative IPC: 0.37750 (Simulation time: 0 hr 12 min 58 sec) 
Heartbeat CPU  0 instructions:  385000000 cycles:  860914490 heartbeat IPC: 0.47675 cumulative IPC: 0.37778 (Simulation time: 0 hr 13 min 0 sec) 
Heartbeat CPU  0 instructions:  386000002 cycles:  863629529 heartbeat IPC: 0.36832 cumulative IPC: 0.37774 (Simulation time: 0 hr 13 min 2 sec) 
Heartbeat CPU  0 instructions:  387000001 cycles:  866250473 heartbeat IPC: 0.38154 cumulative IPC: 0.37776 (Simulation time: 0 hr 13 min 4 sec) 
Heartbeat CPU  0 instructions:  388000000 cycles:  868978852 heartbeat IPC: 0.36652 cumulative IPC: 0.37772 (Simulation time: 0 hr 13 min 6 sec) 
Heartbeat CPU  0 instructions:  389000000 cycles:  871666972 heartbeat IPC: 0.37201 cumulative IPC: 0.37770 (Simulation time: 0 hr 13 min 9 sec) 
Heartbeat CPU  0 instructions:  390000000 cycles:  874342313 heartbeat IPC: 0.37378 cumulative IPC: 0.37768 (Simulation time: 0 hr 13 min 11 sec) 
Heartbeat CPU  0 instructions:  391000001 cycles:  877038772 heartbeat IPC: 0.37086 cumulative IPC: 0.37766 (Simulation time: 0 hr 13 min 13 sec) 
Heartbeat CPU  0 instructions:  392000000 cycles:  879769876 heartbeat IPC: 0.36615 cumulative IPC: 0.37762 (Simulation time: 0 hr 13 min 15 sec) 
Heartbeat CPU  0 instructions:  393000000 cycles:  882480955 heartbeat IPC: 0.36886 cumulative IPC: 0.37759 (Simulation time: 0 hr 13 min 17 sec) 
Heartbeat CPU  0 instructions:  394000002 cycles:  885081706 heartbeat IPC: 0.38451 cumulative IPC: 0.37761 (Simulation time: 0 hr 13 min 19 sec) 
Heartbeat CPU  0 instructions:  395000002 cycles:  887862778 heartbeat IPC: 0.35957 cumulative IPC: 0.37755 (Simulation time: 0 hr 13 min 21 sec) 
Heartbeat CPU  0 instructions:  396000000 cycles:  890505391 heartbeat IPC: 0.37841 cumulative IPC: 0.37755 (Simulation time: 0 hr 13 min 24 sec) 
Heartbeat CPU  0 instructions:  397000000 cycles:  893218909 heartbeat IPC: 0.36853 cumulative IPC: 0.37752 (Simulation time: 0 hr 13 min 26 sec) 
Heartbeat CPU  0 instructions:  398000001 cycles:  895972823 heartbeat IPC: 0.36312 cumulative IPC: 0.37747 (Simulation time: 0 hr 13 min 28 sec) 
Heartbeat CPU  0 instructions:  399000002 cycles:  898719195 heartbeat IPC: 0.36412 cumulative IPC: 0.37742 (Simulation time: 0 hr 13 min 30 sec) 
Heartbeat CPU  0 instructions:  400000000 cycles:  901499455 heartbeat IPC: 0.35968 cumulative IPC: 0.37736 (Simulation time: 0 hr 13 min 32 sec) 
Heartbeat CPU  0 instructions:  401000000 cycles:  904225192 heartbeat IPC: 0.36687 cumulative IPC: 0.37732 (Simulation time: 0 hr 13 min 34 sec) 
Heartbeat CPU  0 instructions:  402000000 cycles:  906923493 heartbeat IPC: 0.37060 cumulative IPC: 0.37730 (Simulation time: 0 hr 13 min 36 sec) 
Heartbeat CPU  0 instructions:  403000001 cycles:  909435248 heartbeat IPC: 0.39813 cumulative IPC: 0.37737 (Simulation time: 0 hr 13 min 39 sec) 
Heartbeat CPU  0 instructions:  404000000 cycles:  911944366 heartbeat IPC: 0.39855 cumulative IPC: 0.37743 (Simulation time: 0 hr 13 min 41 sec) 
Heartbeat CPU  0 instructions:  405000000 cycles:  914083418 heartbeat IPC: 0.46750 cumulative IPC: 0.37767 (Simulation time: 0 hr 13 min 43 sec) 
Heartbeat CPU  0 instructions:  406000002 cycles:  916437992 heartbeat IPC: 0.42471 cumulative IPC: 0.37781 (Simulation time: 0 hr 13 min 45 sec) 
Heartbeat CPU  0 instructions:  407000000 cycles:  919053399 heartbeat IPC: 0.38235 cumulative IPC: 0.37782 (Simulation time: 0 hr 13 min 47 sec) 
Heartbeat CPU  0 instructions:  408000000 cycles:  921788015 heartbeat IPC: 0.36568 cumulative IPC: 0.37778 (Simulation time: 0 hr 13 min 49 sec) 
Heartbeat CPU  0 instructions:  409000002 cycles:  924651956 heartbeat IPC: 0.34917 cumulative IPC: 0.37768 (Simulation time: 0 hr 13 min 51 sec) 
Heartbeat CPU  0 instructions:  410000001 cycles:  927369452 heartbeat IPC: 0.36799 cumulative IPC: 0.37765 (Simulation time: 0 hr 13 min 53 sec) 
Heartbeat CPU  0 instructions:  411000000 cycles:  930070746 heartbeat IPC: 0.37019 cumulative IPC: 0.37762 (Simulation time: 0 hr 13 min 56 sec) 
Heartbeat CPU  0 instructions:  412000000 cycles:  932699331 heartbeat IPC: 0.38043 cumulative IPC: 0.37763 (Simulation time: 0 hr 13 min 58 sec) 
Heartbeat CPU  0 instructions:  413000000 cycles:  935458995 heartbeat IPC: 0.36236 cumulative IPC: 0.37758 (Simulation time: 0 hr 14 min 0 sec) 
Heartbeat CPU  0 instructions:  414000000 cycles:  938102117 heartbeat IPC: 0.37834 cumulative IPC: 0.37758 (Simulation time: 0 hr 14 min 2 sec) 
Heartbeat CPU  0 instructions:  415000000 cycles:  940805408 heartbeat IPC: 0.36992 cumulative IPC: 0.37756 (Simulation time: 0 hr 14 min 4 sec) 
Heartbeat CPU  0 instructions:  416000000 cycles:  943554509 heartbeat IPC: 0.36376 cumulative IPC: 0.37751 (Simulation time: 0 hr 14 min 6 sec) 
Heartbeat CPU  0 instructions:  417000003 cycles:  946178955 heartbeat IPC: 0.38103 cumulative IPC: 0.37753 (Simulation time: 0 hr 14 min 8 sec) 
Heartbeat CPU  0 instructions:  418000000 cycles:  948942332 heartbeat IPC: 0.36187 cumulative IPC: 0.37747 (Simulation time: 0 hr 14 min 11 sec) 
Heartbeat CPU  0 instructions:  419000000 cycles:  951727857 heartbeat IPC: 0.35900 cumulative IPC: 0.37741 (Simulation time: 0 hr 14 min 13 sec) 
Heartbeat CPU  0 instructions:  420000000 cycles:  954439323 heartbeat IPC: 0.36880 cumulative IPC: 0.37739 (Simulation time: 0 hr 14 min 15 sec) 
Heartbeat CPU  0 instructions:  421000000 cycles:  957218872 heartbeat IPC: 0.35977 cumulative IPC: 0.37733 (Simulation time: 0 hr 14 min 17 sec) 
Heartbeat CPU  0 instructions:  422000001 cycles:  959915014 heartbeat IPC: 0.37090 cumulative IPC: 0.37731 (Simulation time: 0 hr 14 min 19 sec) 
Heartbeat CPU  0 instructions:  423000000 cycles:  962397705 heartbeat IPC: 0.40279 cumulative IPC: 0.37738 (Simulation time: 0 hr 14 min 21 sec) 
Heartbeat CPU  0 instructions:  424000000 cycles:  964367214 heartbeat IPC: 0.50774 cumulative IPC: 0.37768 (Simulation time: 0 hr 14 min 23 sec) 
Heartbeat CPU  0 instructions:  425000001 cycles:  966770196 heartbeat IPC: 0.41615 cumulative IPC: 0.37779 (Simulation time: 0 hr 14 min 25 sec) 
Heartbeat CPU  0 instructions:  426000001 cycles:  969413116 heartbeat IPC: 0.37837 cumulative IPC: 0.37779 (Simulation time: 0 hr 14 min 28 sec) 
Heartbeat CPU  0 instructions:  427000000 cycles:  972123619 heartbeat IPC: 0.36893 cumulative IPC: 0.37776 (Simulation time: 0 hr 14 min 30 sec) 
Heartbeat CPU  0 instructions:  428000000 cycles:  974952151 heartbeat IPC: 0.35354 cumulative IPC: 0.37768 (Simulation time: 0 hr 14 min 32 sec) 
Heartbeat CPU  0 instructions:  429000001 cycles:  977731699 heartbeat IPC: 0.35977 cumulative IPC: 0.37763 (Simulation time: 0 hr 14 min 34 sec) 
Heartbeat CPU  0 instructions:  430000001 cycles:  980421363 heartbeat IPC: 0.37179 cumulative IPC: 0.37761 (Simulation time: 0 hr 14 min 36 sec) 
Heartbeat CPU  0 instructions:  431000000 cycles:  983094920 heartbeat IPC: 0.37403 cumulative IPC: 0.37760 (Simulation time: 0 hr 14 min 38 sec) 
Heartbeat CPU  0 instructions:  432000000 cycles:  985816716 heartbeat IPC: 0.36740 cumulative IPC: 0.37757 (Simulation time: 0 hr 14 min 40 sec) 
Heartbeat CPU  0 instructions:  433000001 cycles:  988572974 heartbeat IPC: 0.36281 cumulative IPC: 0.37752 (Simulation time: 0 hr 14 min 43 sec) 
Heartbeat CPU  0 instructions:  434000001 cycles:  991213875 heartbeat IPC: 0.37866 cumulative IPC: 0.37752 (Simulation time: 0 hr 14 min 45 sec) 
Heartbeat CPU  0 instructions:  435000000 cycles:  993918738 heartbeat IPC: 0.36970 cumulative IPC: 0.37750 (Simulation time: 0 hr 14 min 47 sec) 
Heartbeat CPU  0 instructions:  436000000 cycles:  996665561 heartbeat IPC: 0.36406 cumulative IPC: 0.37746 (Simulation time: 0 hr 14 min 49 sec) 
Heartbeat CPU  0 instructions:  437000000 cycles:  999307848 heartbeat IPC: 0.37846 cumulative IPC: 0.37746 (Simulation time: 0 hr 14 min 51 sec) 
Heartbeat CPU  0 instructions:  438000000 cycles: 1002074977 heartbeat IPC: 0.36139 cumulative IPC: 0.37741 (Simulation time: 0 hr 14 min 54 sec) 
Heartbeat CPU  0 instructions:  439000003 cycles: 1004834164 heartbeat IPC: 0.36243 cumulative IPC: 0.37737 (Simulation time: 0 hr 14 min 56 sec) 
Heartbeat CPU  0 instructions:  440000000 cycles: 1007565596 heartbeat IPC: 0.36611 cumulative IPC: 0.37733 (Simulation time: 0 hr 14 min 58 sec) 
Heartbeat CPU  0 instructions:  441000001 cycles: 1010304397 heartbeat IPC: 0.36512 cumulative IPC: 0.37729 (Simulation time: 0 hr 15 min 0 sec) 
Heartbeat CPU  0 instructions:  442000000 cycles: 1013007982 heartbeat IPC: 0.36988 cumulative IPC: 0.37727 (Simulation time: 0 hr 15 min 2 sec) 
Heartbeat CPU  0 instructions:  443000002 cycles: 1015550241 heartbeat IPC: 0.39335 cumulative IPC: 0.37732 (Simulation time: 0 hr 15 min 4 sec) 
Heartbeat CPU  0 instructions:  444000000 cycles: 1018179259 heartbeat IPC: 0.38037 cumulative IPC: 0.37733 (Simulation time: 0 hr 15 min 7 sec) 
Heartbeat CPU  0 instructions:  445000000 cycles: 1020959053 heartbeat IPC: 0.35974 cumulative IPC: 0.37727 (Simulation time: 0 hr 15 min 9 sec) 
Heartbeat CPU  0 instructions:  446000003 cycles: 1023700950 heartbeat IPC: 0.36471 cumulative IPC: 0.37723 (Simulation time: 0 hr 15 min 11 sec) 
Heartbeat CPU  0 instructions:  447000002 cycles: 1026431954 heartbeat IPC: 0.36617 cumulative IPC: 0.37720 (Simulation time: 0 hr 15 min 13 sec) 
Heartbeat CPU  0 instructions:  448000000 cycles: 1028828964 heartbeat IPC: 0.41719 cumulative IPC: 0.37731 (Simulation time: 0 hr 15 min 15 sec) 
Heartbeat CPU  0 instructions:  449000000 cycles: 1030925408 heartbeat IPC: 0.47700 cumulative IPC: 0.37753 (Simulation time: 0 hr 15 min 17 sec) 
Heartbeat CPU  0 instructions:  450000000 cycles: 1033573794 heartbeat IPC: 0.37759 cumulative IPC: 0.37753 (Simulation time: 0 hr 15 min 19 sec) 
Heartbeat CPU  0 instructions:  451000000 cycles: 1036280721 heartbeat IPC: 0.36942 cumulative IPC: 0.37751 (Simulation time: 0 hr 15 min 21 sec) 
Heartbeat CPU  0 instructions:  452000000 cycles: 1038966387 heartbeat IPC: 0.37235 cumulative IPC: 0.37749 (Simulation time: 0 hr 15 min 23 sec) 
Heartbeat CPU  0 instructions:  453000000 cycles: 1041620036 heartbeat IPC: 0.37684 cumulative IPC: 0.37749 (Simulation time: 0 hr 15 min 25 sec) 
Heartbeat CPU  0 instructions:  454000001 cycles: 1044337016 heartbeat IPC: 0.36806 cumulative IPC: 0.37746 (Simulation time: 0 hr 15 min 28 sec) 
Heartbeat CPU  0 instructions:  455000000 cycles: 1047053922 heartbeat IPC: 0.36807 cumulative IPC: 0.37744 (Simulation time: 0 hr 15 min 30 sec) 
Heartbeat CPU  0 instructions:  456000000 cycles: 1049697897 heartbeat IPC: 0.37822 cumulative IPC: 0.37744 (Simulation time: 0 hr 15 min 32 sec) 
Heartbeat CPU  0 instructions:  457000003 cycles: 1052434573 heartbeat IPC: 0.36541 cumulative IPC: 0.37740 (Simulation time: 0 hr 15 min 34 sec) 
Heartbeat CPU  0 instructions:  458000003 cycles: 1055132221 heartbeat IPC: 0.37069 cumulative IPC: 0.37739 (Simulation time: 0 hr 15 min 36 sec) 
Heartbeat CPU  0 instructions:  459000001 cycles: 1057919948 heartbeat IPC: 0.35871 cumulative IPC: 0.37733 (Simulation time: 0 hr 15 min 38 sec) 
Heartbeat CPU  0 instructions:  460000000 cycles: 1060636171 heartbeat IPC: 0.36816 cumulative IPC: 0.37730 (Simulation time: 0 hr 15 min 41 sec) 
Heartbeat CPU  0 instructions:  461000002 cycles: 1063317290 heartbeat IPC: 0.37298 cumulative IPC: 0.37729 (Simulation time: 0 hr 15 min 43 sec) 
Heartbeat CPU  0 instructions:  462000003 cycles: 1065920389 heartbeat IPC: 0.38416 cumulative IPC: 0.37731 (Simulation time: 0 hr 15 min 45 sec) 
Heartbeat CPU  0 instructions:  463000001 cycles: 1067900730 heartbeat IPC: 0.50496 cumulative IPC: 0.37757 (Simulation time: 0 hr 15 min 47 sec) 
Heartbeat CPU  0 instructions:  464000000 cycles: 1070793299 heartbeat IPC: 0.34571 cumulative IPC: 0.37748 (Simulation time: 0 hr 15 min 49 sec) 
Heartbeat CPU  0 instructions:  465000001 cycles: 1073596084 heartbeat IPC: 0.35679 cumulative IPC: 0.37742 (Simulation time: 0 hr 15 min 51 sec) 
Heartbeat CPU  0 instructions:  466000000 cycles: 1076021625 heartbeat IPC: 0.41228 cumulative IPC: 0.37751 (Simulation time: 0 hr 15 min 53 sec) 
Heartbeat CPU  0 instructions:  467000000 cycles: 1078649555 heartbeat IPC: 0.38053 cumulative IPC: 0.37751 (Simulation time: 0 hr 15 min 55 sec) 
Heartbeat CPU  0 instructions:  468000000 cycles: 1081348580 heartbeat IPC: 0.37050 cumulative IPC: 0.37749 (Simulation time: 0 hr 15 min 57 sec) 
Heartbeat CPU  0 instructions:  469000001 cycles: 1084031531 heartbeat IPC: 0.37272 cumulative IPC: 0.37748 (Simulation time: 0 hr 15 min 59 sec) 
Heartbeat CPU  0 instructions:  470000001 cycles: 1086725844 heartbeat IPC: 0.37115 cumulative IPC: 0.37746 (Simulation time: 0 hr 16 min 2 sec) 
Heartbeat CPU  0 instructions:  471000000 cycles: 1089340216 heartbeat IPC: 0.38250 cumulative IPC: 0.37748 (Simulation time: 0 hr 16 min 4 sec) 
Heartbeat CPU  0 instructions:  472000000 cycles: 1092095464 heartbeat IPC: 0.36294 cumulative IPC: 0.37744 (Simulation time: 0 hr 16 min 6 sec) 
Heartbeat CPU  0 instructions:  473000002 cycles: 1094751169 heartbeat IPC: 0.37655 cumulative IPC: 0.37743 (Simulation time: 0 hr 16 min 8 sec) 
Heartbeat CPU  0 instructions:  474000001 cycles: 1097459470 heartbeat IPC: 0.36923 cumulative IPC: 0.37741 (Simulation time: 0 hr 16 min 10 sec) 
Heartbeat CPU  0 instructions:  475000002 cycles: 1100211190 heartbeat IPC: 0.36341 cumulative IPC: 0.37737 (Simulation time: 0 hr 16 min 12 sec) 
Heartbeat CPU  0 instructions:  476000000 cycles: 1102906020 heartbeat IPC: 0.37108 cumulative IPC: 0.37736 (Simulation time: 0 hr 16 min 14 sec) 
Heartbeat CPU  0 instructions:  477000001 cycles: 1105678674 heartbeat IPC: 0.36067 cumulative IPC: 0.37731 (Simulation time: 0 hr 16 min 17 sec) 
Heartbeat CPU  0 instructions:  478000001 cycles: 1108375556 heartbeat IPC: 0.37080 cumulative IPC: 0.37729 (Simulation time: 0 hr 16 min 19 sec) 
Heartbeat CPU  0 instructions:  479000002 cycles: 1111042951 heartbeat IPC: 0.37490 cumulative IPC: 0.37729 (Simulation time: 0 hr 16 min 21 sec) 
Heartbeat CPU  0 instructions:  480000000 cycles: 1113815940 heartbeat IPC: 0.36062 cumulative IPC: 0.37724 (Simulation time: 0 hr 16 min 23 sec) 
Heartbeat CPU  0 instructions:  481000000 cycles: 1116601889 heartbeat IPC: 0.35894 cumulative IPC: 0.37719 (Simulation time: 0 hr 16 min 25 sec) 
Heartbeat CPU  0 instructions:  482000002 cycles: 1118552378 heartbeat IPC: 0.51269 cumulative IPC: 0.37745 (Simulation time: 0 hr 16 min 27 sec) 
Heartbeat CPU  0 instructions:  483000003 cycles: 1121348177 heartbeat IPC: 0.35768 cumulative IPC: 0.37740 (Simulation time: 0 hr 16 min 29 sec) 
Heartbeat CPU  0 instructions:  484000000 cycles: 1124102215 heartbeat IPC: 0.36310 cumulative IPC: 0.37736 (Simulation time: 0 hr 16 min 31 sec) 
Heartbeat CPU  0 instructions:  485000001 cycles: 1126930327 heartbeat IPC: 0.35359 cumulative IPC: 0.37729 (Simulation time: 0 hr 16 min 33 sec) 
Heartbeat CPU  0 instructions:  486000000 cycles: 1129630132 heartbeat IPC: 0.37040 cumulative IPC: 0.37727 (Simulation time: 0 hr 16 min 36 sec) 
Heartbeat CPU  0 instructions:  487000002 cycles: 1132002767 heartbeat IPC: 0.42147 cumulative IPC: 0.37738 (Simulation time: 0 hr 16 min 38 sec) 
Heartbeat CPU  0 instructions:  488000000 cycles: 1134807608 heartbeat IPC: 0.35653 cumulative IPC: 0.37732 (Simulation time: 0 hr 16 min 40 sec) 
Heartbeat CPU  0 instructions:  489000001 cycles: 1137595922 heartbeat IPC: 0.35864 cumulative IPC: 0.37727 (Simulation time: 0 hr 16 min 42 sec) 
Heartbeat CPU  0 instructions:  490000001 cycles: 1140225988 heartbeat IPC: 0.38022 cumulative IPC: 0.37728 (Simulation time: 0 hr 16 min 44 sec) 
Heartbeat CPU  0 instructions:  491000001 cycles: 1142909750 heartbeat IPC: 0.37261 cumulative IPC: 0.37726 (Simulation time: 0 hr 16 min 46 sec) 
Heartbeat CPU  0 instructions:  492000000 cycles: 1145577648 heartbeat IPC: 0.37483 cumulative IPC: 0.37726 (Simulation time: 0 hr 16 min 48 sec) 
Heartbeat CPU  0 instructions:  493000000 cycles: 1148340494 heartbeat IPC: 0.36195 cumulative IPC: 0.37722 (Simulation time: 0 hr 16 min 51 sec) 
Heartbeat CPU  0 instructions:  494000000 cycles: 1151037191 heartbeat IPC: 0.37082 cumulative IPC: 0.37720 (Simulation time: 0 hr 16 min 53 sec) 
Heartbeat CPU  0 instructions:  495000000 cycles: 1153833514 heartbeat IPC: 0.35761 cumulative IPC: 0.37715 (Simulation time: 0 hr 16 min 55 sec) 
Heartbeat CPU  0 instructions:  496000000 cycles: 1156538721 heartbeat IPC: 0.36966 cumulative IPC: 0.37713 (Simulation time: 0 hr 16 min 57 sec) 
Heartbeat CPU  0 instructions:  497000000 cycles: 1159216286 heartbeat IPC: 0.37347 cumulative IPC: 0.37712 (Simulation time: 0 hr 16 min 59 sec) 
Heartbeat CPU  0 instructions:  498000001 cycles: 1161459402 heartbeat IPC: 0.44581 cumulative IPC: 0.37727 (Simulation time: 0 hr 17 min 1 sec) 
Heartbeat CPU  0 instructions:  499000001 cycles: 1163814795 heartbeat IPC: 0.42456 cumulative IPC: 0.37737 (Simulation time: 0 hr 17 min 3 sec) 
Heartbeat CPU  0 instructions:  500000000 cycles: 1166206504 heartbeat IPC: 0.41811 cumulative IPC: 0.37746 (Simulation time: 0 hr 17 min 5 sec) 
Heartbeat CPU  0 instructions:  501000001 cycles: 1168856446 heartbeat IPC: 0.37737 cumulative IPC: 0.37746 (Simulation time: 0 hr 17 min 7 sec) 
Heartbeat CPU  0 instructions:  502000003 cycles: 1171649568 heartbeat IPC: 0.35802 cumulative IPC: 0.37741 (Simulation time: 0 hr 17 min 10 sec) 
Heartbeat CPU  0 instructions:  503000000 cycles: 1173348715 heartbeat IPC: 0.58853 cumulative IPC: 0.37775 (Simulation time: 0 hr 17 min 12 sec) 
Heartbeat CPU  0 instructions:  504000000 cycles: 1174306146 heartbeat IPC: 1.04446 cumulative IPC: 0.37835 (Simulation time: 0 hr 17 min 14 sec) 
Heartbeat CPU  0 instructions:  505000000 cycles: 1175373159 heartbeat IPC: 0.93720 cumulative IPC: 0.37890 (Simulation time: 0 hr 17 min 17 sec) 
Heartbeat CPU  0 instructions:  506000000 cycles: 1176722691 heartbeat IPC: 0.74100 cumulative IPC: 0.37936 (Simulation time: 0 hr 17 min 20 sec) 
Heartbeat CPU  0 instructions:  507000003 cycles: 1178277562 heartbeat IPC: 0.64314 cumulative IPC: 0.37974 (Simulation time: 0 hr 17 min 22 sec) 
Heartbeat CPU  0 instructions:  508000000 cycles: 1181038709 heartbeat IPC: 0.36217 cumulative IPC: 0.37970 (Simulation time: 0 hr 17 min 26 sec) 
Heartbeat CPU  0 instructions:  509000003 cycles: 1184378903 heartbeat IPC: 0.29938 cumulative IPC: 0.37945 (Simulation time: 0 hr 17 min 30 sec) 
Heartbeat CPU  0 instructions:  510000003 cycles: 1187876108 heartbeat IPC: 0.28594 cumulative IPC: 0.37915 (Simulation time: 0 hr 17 min 35 sec) 
Heartbeat CPU  0 instructions:  511000001 cycles: 1191946116 heartbeat IPC: 0.24570 cumulative IPC: 0.37865 (Simulation time: 0 hr 17 min 39 sec) 
Heartbeat CPU  0 instructions:  512000000 cycles: 1197035346 heartbeat IPC: 0.19649 cumulative IPC: 0.37780 (Simulation time: 0 hr 17 min 45 sec) 
Heartbeat CPU  0 instructions:  513000003 cycles: 1202255917 heartbeat IPC: 0.19155 cumulative IPC: 0.37691 (Simulation time: 0 hr 17 min 50 sec) 
Heartbeat CPU  0 instructions:  514000002 cycles: 1205033452 heartbeat IPC: 0.36003 cumulative IPC: 0.37687 (Simulation time: 0 hr 17 min 54 sec) 
Heartbeat CPU  0 instructions:  515000002 cycles: 1206772729 heartbeat IPC: 0.57495 cumulative IPC: 0.37718 (Simulation time: 0 hr 17 min 57 sec) 
Heartbeat CPU  0 instructions:  516000000 cycles: 1208493676 heartbeat IPC: 0.58107 cumulative IPC: 0.37750 (Simulation time: 0 hr 18 min 0 sec) 
Heartbeat CPU  0 instructions:  517000001 cycles: 1210233710 heartbeat IPC: 0.57470 cumulative IPC: 0.37781 (Simulation time: 0 hr 18 min 3 sec) 
Heartbeat CPU  0 instructions:  518000002 cycles: 1213665640 heartbeat IPC: 0.29138 cumulative IPC: 0.37754 (Simulation time: 0 hr 18 min 7 sec) 
Heartbeat CPU  0 instructions:  519000002 cycles: 1217257911 heartbeat IPC: 0.27838 cumulative IPC: 0.37722 (Simulation time: 0 hr 18 min 12 sec) 
Heartbeat CPU  0 instructions:  520000000 cycles: 1220744863 heartbeat IPC: 0.28678 cumulative IPC: 0.37694 (Simulation time: 0 hr 18 min 16 sec) 
Heartbeat CPU  0 instructions:  521000000 cycles: 1225361089 heartbeat IPC: 0.21663 cumulative IPC: 0.37628 (Simulation time: 0 hr 18 min 21 sec) 
Heartbeat CPU  0 instructions:  522000002 cycles: 1230602647 heartbeat IPC: 0.19078 cumulative IPC: 0.37541 (Simulation time: 0 hr 18 min 27 sec) 
Heartbeat CPU  0 instructions:  523000000 cycles: 1235243927 heartbeat IPC: 0.21546 cumulative IPC: 0.37475 (Simulation time: 0 hr 18 min 32 sec) 
Heartbeat CPU  0 instructions:  524000000 cycles: 1237617135 heartbeat IPC: 0.42137 cumulative IPC: 0.37485 (Simulation time: 0 hr 18 min 34 sec) 
Heartbeat CPU  0 instructions:  525000002 cycles: 1240175302 heartbeat IPC: 0.39091 cumulative IPC: 0.37489 (Simulation time: 0 hr 18 min 36 sec) 
Heartbeat CPU  0 instructions:  526000000 cycles: 1242478742 heartbeat IPC: 0.43413 cumulative IPC: 0.37501 (Simulation time: 0 hr 18 min 38 sec) 
Heartbeat CPU  0 instructions:  527000001 cycles: 1245258048 heartbeat IPC: 0.35980 cumulative IPC: 0.37497 (Simulation time: 0 hr 18 min 40 sec) 
Heartbeat CPU  0 instructions:  528000000 cycles: 1247525444 heartbeat IPC: 0.44103 cumulative IPC: 0.37510 (Simulation time: 0 hr 18 min 42 sec) 
Heartbeat CPU  0 instructions:  529000000 cycles: 1249488168 heartbeat IPC: 0.50950 cumulative IPC: 0.37533 (Simulation time: 0 hr 18 min 44 sec) 
Heartbeat CPU  0 instructions:  530000003 cycles: 1252302198 heartbeat IPC: 0.35536 cumulative IPC: 0.37528 (Simulation time: 0 hr 18 min 46 sec) 
Heartbeat CPU  0 instructions:  531000001 cycles: 1254719443 heartbeat IPC: 0.41369 cumulative IPC: 0.37536 (Simulation time: 0 hr 18 min 48 sec) 
Heartbeat CPU  0 instructions:  532000000 cycles: 1257181167 heartbeat IPC: 0.40622 cumulative IPC: 0.37543 (Simulation time: 0 hr 18 min 50 sec) 
Heartbeat CPU  0 instructions:  533000002 cycles: 1259926060 heartbeat IPC: 0.36431 cumulative IPC: 0.37540 (Simulation time: 0 hr 18 min 53 sec) 
Heartbeat CPU  0 instructions:  534000000 cycles: 1262286182 heartbeat IPC: 0.42371 cumulative IPC: 0.37550 (Simulation time: 0 hr 18 min 55 sec) 
Heartbeat CPU  0 instructions:  535000000 cycles: 1264381568 heartbeat IPC: 0.47724 cumulative IPC: 0.37569 (Simulation time: 0 hr 18 min 57 sec) 
Heartbeat CPU  0 instructions:  536000000 cycles: 1266957976 heartbeat IPC: 0.38814 cumulative IPC: 0.37571 (Simulation time: 0 hr 18 min 59 sec) 
Heartbeat CPU  0 instructions:  537000001 cycles: 1269333888 heartbeat IPC: 0.42089 cumulative IPC: 0.37581 (Simulation time: 0 hr 19 min 1 sec) 
Heartbeat CPU  0 instructions:  538000001 cycles: 1271857516 heartbeat IPC: 0.39625 cumulative IPC: 0.37585 (Simulation time: 0 hr 19 min 3 sec) 
Heartbeat CPU  0 instructions:  539000000 cycles: 1274359570 heartbeat IPC: 0.39967 cumulative IPC: 0.37590 (Simulation time: 0 hr 19 min 5 sec) 
Heartbeat CPU  0 instructions:  540000000 cycles: 1277007220 heartbeat IPC: 0.37769 cumulative IPC: 0.37591 (Simulation time: 0 hr 19 min 7 sec) 
Heartbeat CPU  0 instructions:  541000001 cycles: 1279491330 heartbeat IPC: 0.40256 cumulative IPC: 0.37596 (Simulation time: 0 hr 19 min 10 sec) 
Heartbeat CPU  0 instructions:  542000002 cycles: 1281838543 heartbeat IPC: 0.42604 cumulative IPC: 0.37606 (Simulation time: 0 hr 19 min 12 sec) 
Heartbeat CPU  0 instructions:  543000003 cycles: 1284417838 heartbeat IPC: 0.38770 cumulative IPC: 0.37609 (Simulation time: 0 hr 19 min 14 sec) 
Heartbeat CPU  0 instructions:  544000000 cycles: 1286966182 heartbeat IPC: 0.39241 cumulative IPC: 0.37612 (Simulation time: 0 hr 19 min 16 sec) 
Heartbeat CPU  0 instructions:  545000000 cycles: 1289167943 heartbeat IPC: 0.45418 cumulative IPC: 0.37627 (Simulation time: 0 hr 19 min 18 sec) 
Heartbeat CPU  0 instructions:  546000000 cycles: 1291479237 heartbeat IPC: 0.43266 cumulative IPC: 0.37638 (Simulation time: 0 hr 19 min 20 sec) 
Heartbeat CPU  0 instructions:  547000000 cycles: 1293926495 heartbeat IPC: 0.40862 cumulative IPC: 0.37644 (Simulation time: 0 hr 19 min 22 sec) 
Heartbeat CPU  0 instructions:  548000000 cycles: 1296581151 heartbeat IPC: 0.37670 cumulative IPC: 0.37645 (Simulation time: 0 hr 19 min 24 sec) 
Heartbeat CPU  0 instructions:  549000000 cycles: 1299168412 heartbeat IPC: 0.38651 cumulative IPC: 0.37647 (Simulation time: 0 hr 19 min 26 sec) 
Heartbeat CPU  0 instructions:  550000001 cycles: 1301769555 heartbeat IPC: 0.38445 cumulative IPC: 0.37648 (Simulation time: 0 hr 19 min 29 sec) 
Heartbeat CPU  0 instructions:  551000001 cycles: 1304410344 heartbeat IPC: 0.37867 cumulative IPC: 0.37649 (Simulation time: 0 hr 19 min 31 sec) 
Heartbeat CPU  0 instructions:  552000000 cycles: 1307041343 heartbeat IPC: 0.38008 cumulative IPC: 0.37650 (Simulation time: 0 hr 19 min 33 sec) 
Heartbeat CPU  0 instructions:  553000002 cycles: 1309604985 heartbeat IPC: 0.39007 cumulative IPC: 0.37653 (Simulation time: 0 hr 19 min 35 sec) 
Heartbeat CPU  0 instructions:  554000000 cycles: 1312260308 heartbeat IPC: 0.37660 cumulative IPC: 0.37653 (Simulation time: 0 hr 19 min 37 sec) 
Heartbeat CPU  0 instructions:  555000000 cycles: 1315013180 heartbeat IPC: 0.36326 cumulative IPC: 0.37650 (Simulation time: 0 hr 19 min 39 sec) 
Heartbeat CPU  0 instructions:  556000000 cycles: 1317523467 heartbeat IPC: 0.39836 cumulative IPC: 0.37654 (Simulation time: 0 hr 19 min 42 sec) 
Heartbeat CPU  0 instructions:  557000000 cycles: 1320247900 heartbeat IPC: 0.36705 cumulative IPC: 0.37652 (Simulation time: 0 hr 19 min 44 sec) 
Heartbeat CPU  0 instructions:  558000000 cycles: 1322872480 heartbeat IPC: 0.38101 cumulative IPC: 0.37653 (Simulation time: 0 hr 19 min 46 sec) 
Heartbeat CPU  0 instructions:  559000000 cycles: 1325603162 heartbeat IPC: 0.36621 cumulative IPC: 0.37651 (Simulation time: 0 hr 19 min 48 sec) 
Heartbeat CPU  0 instructions:  560000000 cycles: 1328317066 heartbeat IPC: 0.36847 cumulative IPC: 0.37649 (Simulation time: 0 hr 19 min 50 sec) 
Heartbeat CPU  0 instructions:  561000001 cycles: 1330957886 heartbeat IPC: 0.37867 cumulative IPC: 0.37649 (Simulation time: 0 hr 19 min 52 sec) 
Heartbeat CPU  0 instructions:  562000000 cycles: 1333631348 heartbeat IPC: 0.37405 cumulative IPC: 0.37649 (Simulation time: 0 hr 19 min 55 sec) 
Heartbeat CPU  0 instructions:  563000001 cycles: 1336398352 heartbeat IPC: 0.36140 cumulative IPC: 0.37645 (Simulation time: 0 hr 19 min 57 sec) 
Heartbeat CPU  0 instructions:  564000000 cycles: 1338881799 heartbeat IPC: 0.40267 cumulative IPC: 0.37651 (Simulation time: 0 hr 19 min 59 sec) 
Heartbeat CPU  0 instructions:  565000002 cycles: 1341585416 heartbeat IPC: 0.36988 cumulative IPC: 0.37649 (Simulation time: 0 hr 20 min 1 sec) 
Heartbeat CPU  0 instructions:  566000000 cycles: 1344185715 heartbeat IPC: 0.38457 cumulative IPC: 0.37651 (Simulation time: 0 hr 20 min 3 sec) 
Heartbeat CPU  0 instructions:  567000003 cycles: 1346833344 heartbeat IPC: 0.37770 cumulative IPC: 0.37651 (Simulation time: 0 hr 20 min 5 sec) 
Heartbeat CPU  0 instructions:  568000000 cycles: 1349498848 heartbeat IPC: 0.37516 cumulative IPC: 0.37651 (Simulation time: 0 hr 20 min 8 sec) 
Heartbeat CPU  0 instructions:  569000002 cycles: 1352298618 heartbeat IPC: 0.35717 cumulative IPC: 0.37647 (Simulation time: 0 hr 20 min 10 sec) 
Heartbeat CPU  0 instructions:  570000001 cycles: 1355017960 heartbeat IPC: 0.36774 cumulative IPC: 0.37645 (Simulation time: 0 hr 20 min 12 sec) 
Heartbeat CPU  0 instructions:  571000001 cycles: 1357727119 heartbeat IPC: 0.36912 cumulative IPC: 0.37643 (Simulation time: 0 hr 20 min 14 sec) 
Heartbeat CPU  0 instructions:  572000000 cycles: 1360503083 heartbeat IPC: 0.36023 cumulative IPC: 0.37639 (Simulation time: 0 hr 20 min 16 sec) 
Heartbeat CPU  0 instructions:  573000000 cycles: 1363235229 heartbeat IPC: 0.36601 cumulative IPC: 0.37637 (Simulation time: 0 hr 20 min 19 sec) 
Heartbeat CPU  0 instructions:  574000000 cycles: 1366004979 heartbeat IPC: 0.36104 cumulative IPC: 0.37634 (Simulation time: 0 hr 20 min 21 sec) 
Heartbeat CPU  0 instructions:  575000002 cycles: 1368774504 heartbeat IPC: 0.36107 cumulative IPC: 0.37630 (Simulation time: 0 hr 20 min 23 sec) 
Heartbeat CPU  0 instructions:  576000000 cycles: 1371461015 heartbeat IPC: 0.37223 cumulative IPC: 0.37630 (Simulation time: 0 hr 20 min 25 sec) 
Heartbeat CPU  0 instructions:  577000002 cycles: 1374178938 heartbeat IPC: 0.36793 cumulative IPC: 0.37628 (Simulation time: 0 hr 20 min 27 sec) 
Heartbeat CPU  0 instructions:  578000001 cycles: 1376757997 heartbeat IPC: 0.38774 cumulative IPC: 0.37630 (Simulation time: 0 hr 20 min 29 sec) 
Heartbeat CPU  0 instructions:  579000002 cycles: 1379437693 heartbeat IPC: 0.37318 cumulative IPC: 0.37630 (Simulation time: 0 hr 20 min 32 sec) 
Heartbeat CPU  0 instructions:  580000000 cycles: 1382107242 heartbeat IPC: 0.37459 cumulative IPC: 0.37629 (Simulation time: 0 hr 20 min 34 sec) 
Heartbeat CPU  0 instructions:  581000003 cycles: 1384757321 heartbeat IPC: 0.37735 cumulative IPC: 0.37629 (Simulation time: 0 hr 20 min 36 sec) 
Heartbeat CPU  0 instructions:  582000001 cycles: 1387503077 heartbeat IPC: 0.36420 cumulative IPC: 0.37627 (Simulation time: 0 hr 20 min 38 sec) 
Heartbeat CPU  0 instructions:  583000000 cycles: 1390142678 heartbeat IPC: 0.37884 cumulative IPC: 0.37627 (Simulation time: 0 hr 20 min 41 sec) 
Heartbeat CPU  0 instructions:  584000000 cycles: 1392759450 heartbeat IPC: 0.38215 cumulative IPC: 0.37629 (Simulation time: 0 hr 20 min 43 sec) 
Heartbeat CPU  0 instructions:  585000002 cycles: 1395477527 heartbeat IPC: 0.36791 cumulative IPC: 0.37627 (Simulation time: 0 hr 20 min 45 sec) 
Heartbeat CPU  0 instructions:  586000000 cycles: 1398162194 heartbeat IPC: 0.37248 cumulative IPC: 0.37626 (Simulation time: 0 hr 20 min 47 sec) 
Heartbeat CPU  0 instructions:  587000000 cycles: 1400633074 heartbeat IPC: 0.40471 cumulative IPC: 0.37631 (Simulation time: 0 hr 20 min 49 sec) 
Heartbeat CPU  0 instructions:  588000000 cycles: 1403268406 heartbeat IPC: 0.37946 cumulative IPC: 0.37632 (Simulation time: 0 hr 20 min 52 sec) 
Heartbeat CPU  0 instructions:  589000002 cycles: 1405819970 heartbeat IPC: 0.39192 cumulative IPC: 0.37635 (Simulation time: 0 hr 20 min 54 sec) 
Heartbeat CPU  0 instructions:  590000000 cycles: 1408426710 heartbeat IPC: 0.38362 cumulative IPC: 0.37637 (Simulation time: 0 hr 20 min 56 sec) 
Heartbeat CPU  0 instructions:  591000000 cycles: 1410879674 heartbeat IPC: 0.40767 cumulative IPC: 0.37642 (Simulation time: 0 hr 20 min 58 sec) 
Heartbeat CPU  0 instructions:  592000000 cycles: 1413579509 heartbeat IPC: 0.37039 cumulative IPC: 0.37641 (Simulation time: 0 hr 21 min 0 sec) 
Heartbeat CPU  0 instructions:  593000001 cycles: 1416251324 heartbeat IPC: 0.37428 cumulative IPC: 0.37641 (Simulation time: 0 hr 21 min 2 sec) 
Heartbeat CPU  0 instructions:  594000000 cycles: 1418827058 heartbeat IPC: 0.38824 cumulative IPC: 0.37643 (Simulation time: 0 hr 21 min 4 sec) 
Heartbeat CPU  0 instructions:  595000002 cycles: 1421571583 heartbeat IPC: 0.36436 cumulative IPC: 0.37641 (Simulation time: 0 hr 21 min 6 sec) 
Heartbeat CPU  0 instructions:  596000000 cycles: 1423931155 heartbeat IPC: 0.42380 cumulative IPC: 0.37649 (Simulation time: 0 hr 21 min 8 sec) 
Heartbeat CPU  0 instructions:  597000000 cycles: 1426336660 heartbeat IPC: 0.41571 cumulative IPC: 0.37656 (Simulation time: 0 hr 21 min 10 sec) 
Heartbeat CPU  0 instructions:  598000000 cycles: 1428817946 heartbeat IPC: 0.40302 cumulative IPC: 0.37661 (Simulation time: 0 hr 21 min 12 sec) 
Heartbeat CPU  0 instructions:  599000001 cycles: 1431490513 heartbeat IPC: 0.37417 cumulative IPC: 0.37661 (Simulation time: 0 hr 21 min 15 sec) 
Heartbeat CPU  0 instructions:  600000000 cycles: 1434082163 heartbeat IPC: 0.38585 cumulative IPC: 0.37662 (Simulation time: 0 hr 21 min 17 sec) 
Finished CPU 0 instructions: 500000000 cycles: 1327581802 cumulative IPC: 0.37662 (Simulation time: 0 hr 21 min 17 sec) 

ChampSim completed all CPUs

[ROI Statistics]
Core_0_instructions 500000000
Core_0_cycles 1327581802
Core_0_IPC 0.37662

Core_0_branch_prediction_accuracy 85.44512
Core_0_branch_MPKI 23.17008
Core_0_average_ROB_occupancy_at_mispredict 40.38676

Core_0_L1D_total_access 157908415
Core_0_L1D_total_hit 155840987
Core_0_L1D_total_miss 2067428
Core_0_L1D_loads 90590578
Core_0_L1D_load_hit 89877948
Core_0_L1D_load_miss 712630
Core_0_L1D_RFOs 67317837
Core_0_L1D_RFO_hit 65963039
Core_0_L1D_RFO_miss 1354798
Core_0_L1D_prefetches 0
Core_0_L1D_prefetch_hit 0
Core_0_L1D_prefetch_miss 0
Core_0_L1D_writebacks 0
Core_0_L1D_writeback_hit 0
Core_0_L1D_writeback_miss 0
Core_0_L1D_prefetch_requested 0
Core_0_L1D_prefetch_dropped 0
Core_0_L1D_prefetch_issued 0
Core_0_L1D_prefetch_filled 0
Core_0_L1D_prefetch_useful 0
Core_0_L1D_prefetch_useless 0
Core_0_L1D_prefetch_late 0
Core_0_L1D_average_miss_latency 495.07315

Core_0_L1D_rq_access 127065399
Core_0_L1D_rq_forward 0
Core_0_L1D_rq_merged 36341192
Core_0_L1D_rq_to_cache 90723630
Core_0_L1D_rq_full 0

Core_0_L1D_wq_access 71549319
Core_0_L1D_wq_forward 577
Core_0_L1D_wq_merged 408581
Core_0_L1D_wq_to_cache 71140738
Core_0_L1D_wq_full 51869843

Core_0_L1D_pq_access 0
Core_0_L1D_pq_forward 0
Core_0_L1D_pq_merged 0
Core_0_L1D_pq_to_cache 0
Core_0_L1D_pq_full 0

Core_0_L1D_acc_epochs 1394896
Core_0_L1D_acc_level_0 1394896
Core_0_L1D_acc_level_1 0
Core_0_L1D_acc_level_2 0
Core_0_L1D_acc_level_3 0
Core_0_L1D_acc_level_4 0
Core_0_L1D_acc_level_5 0
Core_0_L1D_acc_level_6 0
Core_0_L1D_acc_level_7 0
Core_0_L1D_acc_level_8 0
Core_0_L1D_acc_level_9 0

Core_0_L1I_total_access 98408886
Core_0_L1I_total_hit 96789329
Core_0_L1I_total_miss 1619557
Core_0_L1I_loads 98408886
Core_0_L1I_load_hit 96789329
Core_0_L1I_load_miss 1619557
Core_0_L1I_RFOs 0
Core_0_L1I_RFO_hit 0
Core_0_L1I_RFO_miss 0
Core_0_L1I_prefetches 0
Core_0_L1I_prefetch_hit 0
Core_0_L1I_prefetch_miss 0
Core_0_L1I_writebacks 0
Core_0_L1I_writeback_hit 0
Core_0_L1I_writeback_miss 0
Core_0_L1I_prefetch_requested 0
Core_0_L1I_prefetch_dropped 0
Core_0_L1I_prefetch_issued 0
Core_0_L1I_prefetch_filled 0
Core_0_L1I_prefetch_useful 0
Core_0_L1I_prefetch_useless 0
Core_0_L1I_prefetch_late 0
Core_0_L1I_average_miss_latency 12.25925

Core_0_L1I_rq_access 499999979
Core_0_L1I_rq_forward 0
Core_0_L1I_rq_merged 401010910
Core_0_L1I_rq_to_cache 98989069
Core_0_L1I_rq_full 0

Core_0_L1I_wq_access 0
Core_0_L1I_wq_forward 0
Core_0_L1I_wq_merged 0
Core_0_L1I_wq_to_cache 0
Core_0_L1I_wq_full 0

Core_0_L1I_pq_access 0
Core_0_L1I_pq_forward 0
Core_0_L1I_pq_merged 0
Core_0_L1I_pq_to_cache 0
Core_0_L1I_pq_full 0

Core_0_L1I_acc_epochs 1394896
Core_0_L1I_acc_level_0 1394896
Core_0_L1I_acc_level_1 0
Core_0_L1I_acc_level_2 0
Core_0_L1I_acc_level_3 0
Core_0_L1I_acc_level_4 0
Core_0_L1I_acc_level_5 0
Core_0_L1I_acc_level_6 0
Core_0_L1I_acc_level_7 0
Core_0_L1I_acc_level_8 0
Core_0_L1I_acc_level_9 0

Core_0_L2C_total_access 5774131
Core_0_L2C_total_hit 4524400
Core_0_L2C_total_miss 1249731
Core_0_L2C_loads 2332181
Core_0_L2C_load_hit 2108790
Core_0_L2C_load_miss 223391
Core_0_L2C_RFOs 1354771
Core_0_L2C_RFO_hit 531034
Core_0_L2C_RFO_miss 823737
Core_0_L2C_prefetches 491911
Core_0_L2C_prefetch_hit 292327
Core_0_L2C_prefetch_miss 199584
Core_0_L2C_writebacks 1595268
Core_0_L2C_writeback_hit 1592249
Core_0_L2C_writeback_miss 3019
Core_0_L2C_prefetch_requested 1345514
Core_0_L2C_prefetch_dropped 0
Core_0_L2C_prefetch_issued 1345514
Core_0_L2C_prefetch_filled 286871
Core_0_L2C_prefetch_useful 218684
Core_0_L2C_prefetch_useless 67996
Core_0_L2C_prefetch_late 3306
Core_0_L2C_average_miss_latency 822.23222

Core_0_L2C_rq_access 3686985
Core_0_L2C_rq_forward 0
Core_0_L2C_rq_merged 0
Core_0_L2C_rq_to_cache 3686952
Core_0_L2C_rq_full 0

Core_0_L2C_wq_access 1595268
Core_0_L2C_wq_forward 33
Core_0_L2C_wq_merged 0
Core_0_L2C_wq_to_cache 1595268
Core_0_L2C_wq_full 0

Core_0_L2C_pq_access 1345514
Core_0_L2C_pq_forward 0
Core_0_L2C_pq_merged 0
Core_0_L2C_pq_to_cache 1345514
Core_0_L2C_pq_full 0

Core_0_L2C_acc_epochs 1394896
Core_0_L2C_acc_level_0 1347325
Core_0_L2C_acc_level_1 15277
Core_0_L2C_acc_level_2 12411
Core_0_L2C_acc_level_3 2365
Core_0_L2C_acc_level_4 1235
Core_0_L2C_acc_level_5 9735
Core_0_L2C_acc_level_6 863
Core_0_L2C_acc_level_7 846
Core_0_L2C_acc_level_8 540
Core_0_L2C_acc_level_9 4299

Core_0_LLC_total_access 2793788
Core_0_LLC_total_hit 772813
Core_0_LLC_total_miss 2020975
Core_0_LLC_loads 220238
Core_0_LLC_load_hit 107249
Core_0_LLC_load_miss 112989
Core_0_LLC_RFOs 823724
Core_0_LLC_RFO_hit 84061
Core_0_LLC_RFO_miss 739663
Core_0_LLC_prefetches 767878
Core_0_LLC_prefetch_hit 298181
Core_0_LLC_prefetch_miss 469697
Core_0_LLC_writebacks 981948
Core_0_LLC_writeback_hit 283322
Core_0_LLC_writeback_miss 698626
Core_0_LLC_prefetch_requested 0
Core_0_LLC_prefetch_dropped 0
Core_0_LLC_prefetch_issued 0
Core_0_LLC_prefetch_filled 565135
Core_0_LLC_prefetch_useful 47119
Core_0_LLC_prefetch_useless 497014
Core_0_LLC_prefetch_late 36
Core_0_LLC_average_miss_latency 545.57516

Core_0_LLC_rq_access 1043963
Core_0_LLC_rq_forward 0
Core_0_LLC_rq_merged 0
Core_0_LLC_rq_to_cache 1043962
Core_0_LLC_rq_full 0

Core_0_LLC_wq_access 981948
Core_0_LLC_wq_forward 2
Core_0_LLC_wq_merged 0
Core_0_LLC_wq_to_cache 981948
Core_0_LLC_wq_full 0

Core_0_LLC_pq_access 974859
Core_0_LLC_pq_forward 0
Core_0_LLC_pq_merged 0
Core_0_LLC_pq_to_cache 974858
Core_0_LLC_pq_full 0

Core_0_LLC_acc_epochs 1400471
Core_0_LLC_acc_level_0 1364600
Core_0_LLC_acc_level_1 21520
Core_0_LLC_acc_level_2 8879
Core_0_LLC_acc_level_3 678
Core_0_LLC_acc_level_4 37
Core_0_LLC_acc_level_5 4192
Core_0_LLC_acc_level_6 35
Core_0_LLC_acc_level_7 59
Core_0_LLC_acc_level_8 13
Core_0_LLC_acc_level_9 458

Core_0_major_page_fault 0
Core_0_minor_page_fault 6504

[Bingo] PHT Access: 224551
[Bingo] PHT Hit PC+Addr: 57233
[Bingo] PHT Hit PC+Offs: 146373
[Bingo] PHT Miss: 20945
[Bingo] Prefetch PC+Addr: 0
[Bingo] Prefetch PC+Offs: 0
[Bingo] Useful PC+Addr: 0
[Bingo] Useful PC+Offs: 0
[Bingo] Useless PC+Addr: 0
[Bingo] Useless PC+Offs: 0
[Bingo] L1 Prefetch per Region: 0.00000
[Bingo] L2 Prefetch per Region: 4.18603
[Bingo] L3 Prefetch per Region: 3.44391
[Bingo] No Prefetch per Region: 24.37006
[Bingo] Number of Voters Mean: 6.23280
[Bingo] Number of Voters SD: 3.25977

Channel_0_RQ_row_buffer_hit 322478
Channel_0_RQ_row_buffer_miss 999870
Channel_0_WQ_row_buffer_hit 119595
Channel_0_WQ_row_buffer_miss 754758
Channel_0_WQ_full 0
Channel_0_dbus_congested 1887964

avg_congested_cycle 24

DRAM_bw_pochs 5601884
DRAM_bw_level_0 5263100
DRAM_bw_level_1 139213
DRAM_bw_level_2 93072
DRAM_bw_level_3 106499
