*************************************************
   ChampSim Multicore Out-of-Order Simulator
   Last compiled: Dec 11 2024 17:59:53
*************************************************
parsing config file: /home/functionmain/桌面/Pythia/config/spp_dev2.ini

trace_0 /home/functionmain/桌面/Pythia/traces/445.gobmk-30B.champsimtrace.xz
adding L2C_PREFETCHER: SPP_dev2
Initialize SIGNATURE TABLE
ST_SET: 1
ST_WAY: 256
ST_TAG_BIT: 16
ST_TAG_MASK: ffff

Initialize PATTERN TABLE
PT_SET: 512
PT_WAY: 4
SIG_DELTA_BIT: 7
C_SIG_BIT: 4
C_DELTA_BIT: 4

Initialize PREFETCH FILTER
FILTER_SET: 1024
fill_threshold: 90
pf_threshold: 40

Initialize SHIP state
warmup_instructions 100000000
simulation_instructions 500000000
champsim_seed 165
measure_ipc 0
measure_ipc_epoch 1000
measure_dram_bw 1
measure_dram_bw_epoch 256
measure_cache_acc 1
measure_cache_acc_epoch 1024
l1d_perfect 0
l2c_perfect 0
llc_perfect 0
l1d_semi_perfect 0
l2c_semi_perfect 0
llc_semi_perfect 0
semi_perfect_cache_page_buffer_size 64

num_cpus 1
cpu_freq 4000
dram_io_freq 9600
page_size 4096
block_size 64
max_read_per_cycle 8
max_fill_per_cycle 1
dram_channels 1
log2_dram_channels 0
dram_ranks 1
dram_banks 8
dram_rows 65536
dram_columns 128
dram_row_size 8
dram_size 4096
dram_pages 1048576

fetch_width 6
decode_width 6
exec_width 4
lq_width 2
sq_width 2
retire_width 4
scheduler_size 128
branch_mispredict_penalty 20
rob_size 256
lq_size 72
sq_size 56
num_instr_destinations_sparc 4
num_instr_destinations 2
num_instr_sources 4

itlb_set 16
itlb_way 8
itlb_rq_size 16
itlb_wq_size 16
itlb_pq_size 0
itlb_mshr_size 8
itlb_latency 1

dtlb_set 16
dtlb_way 4
dtlb_rq_size 16
dtlb_wq_size 16
dtlb_pq_size 0
dtlb_mshr_size 8
dtlb_latency 1

stlb_set 128
stlb_way 12
stlb_rq_size 32
stlb_wq_size 32
stlb_pq_size 0
stlb_mshr_size 16
stlb_latency 8

l1i_size 32
l1i_set 64
l1i_way 8
l1i_rq_size 64
l1i_wq_size 64
l1i_pq_size 8
l1i_mshr_size 8
l1i_latency 1

l1d_size 32
l1d_set 64
l1d_way 8
l1d_rq_size 64
l1d_wq_size 64
l1d_pq_size 8
l1d_mshr_size 16
l1d_latency 4

l2c_size 256
l2c_set 512
l2c_way 8
l2c_rq_size 32
l2c_wq_size 32
l2c_pq_size 32
l2c_mshr_size 32
l2c_latency 10

llc_size 2048
llc_set 2048
llc_way 16
llc_rq_size 32
llc_wq_size 32
llc_pq_size 32
llc_mshr_size 64
llc_latency 20

dram_channel_width 8
dram_wq_size 64
dram_rq_size 64
tRP 15
tRCD 15
tCAS 12.5
dram_dbus_turn_around_time 30
dram_write_high_wm 56
dram_write_low_wm 48
min_dram_writes_per_switch 16
dram_mtps 9600
dram_dbus_return_time 3


Heartbeat CPU  0 instructions:    1000000 cycles:     861985 heartbeat IPC: 1.16011 cumulative IPC: 1.16011 (Simulation time: 0 hr 0 min 1 sec) 
Heartbeat CPU  0 instructions:    2000000 cycles:    1864998 heartbeat IPC: 0.99700 cumulative IPC: 1.07239 (Simulation time: 0 hr 0 min 2 sec) 
Heartbeat CPU  0 instructions:    3000001 cycles:    2990805 heartbeat IPC: 0.88825 cumulative IPC: 1.00307 (Simulation time: 0 hr 0 min 4 sec) 
Heartbeat CPU  0 instructions:    4000000 cycles:    4091701 heartbeat IPC: 0.90835 cumulative IPC: 0.97759 (Simulation time: 0 hr 0 min 5 sec) 
Heartbeat CPU  0 instructions:    5000001 cycles:    5174027 heartbeat IPC: 0.92394 cumulative IPC: 0.96637 (Simulation time: 0 hr 0 min 6 sec) 
Heartbeat CPU  0 instructions:    6000000 cycles:    6296895 heartbeat IPC: 0.89058 cumulative IPC: 0.95285 (Simulation time: 0 hr 0 min 7 sec) 
Heartbeat CPU  0 instructions:    7000001 cycles:    7364166 heartbeat IPC: 0.93697 cumulative IPC: 0.95055 (Simulation time: 0 hr 0 min 8 sec) 
Heartbeat CPU  0 instructions:    8000000 cycles:    8566971 heartbeat IPC: 0.83139 cumulative IPC: 0.93382 (Simulation time: 0 hr 0 min 10 sec) 
Heartbeat CPU  0 instructions:    9000000 cycles:    9686425 heartbeat IPC: 0.89329 cumulative IPC: 0.92914 (Simulation time: 0 hr 0 min 11 sec) 
Heartbeat CPU  0 instructions:   10000003 cycles:   10816247 heartbeat IPC: 0.88510 cumulative IPC: 0.92454 (Simulation time: 0 hr 0 min 12 sec) 
Heartbeat CPU  0 instructions:   11000000 cycles:   11874015 heartbeat IPC: 0.94538 cumulative IPC: 0.92639 (Simulation time: 0 hr 0 min 13 sec) 
Heartbeat CPU  0 instructions:   12000000 cycles:   13018242 heartbeat IPC: 0.87395 cumulative IPC: 0.92178 (Simulation time: 0 hr 0 min 14 sec) 
Heartbeat CPU  0 instructions:   13000001 cycles:   14157728 heartbeat IPC: 0.87759 cumulative IPC: 0.91823 (Simulation time: 0 hr 0 min 15 sec) 
Heartbeat CPU  0 instructions:   14000000 cycles:   15084424 heartbeat IPC: 1.07910 cumulative IPC: 0.92811 (Simulation time: 0 hr 0 min 17 sec) 
Heartbeat CPU  0 instructions:   15000001 cycles:   16048488 heartbeat IPC: 1.03728 cumulative IPC: 0.93467 (Simulation time: 0 hr 0 min 18 sec) 
Heartbeat CPU  0 instructions:   16000000 cycles:   17177507 heartbeat IPC: 0.88572 cumulative IPC: 0.93145 (Simulation time: 0 hr 0 min 19 sec) 
Heartbeat CPU  0 instructions:   17000000 cycles:   18273067 heartbeat IPC: 0.91278 cumulative IPC: 0.93033 (Simulation time: 0 hr 0 min 20 sec) 
Heartbeat CPU  0 instructions:   18000003 cycles:   19389543 heartbeat IPC: 0.89568 cumulative IPC: 0.92834 (Simulation time: 0 hr 0 min 21 sec) 
Heartbeat CPU  0 instructions:   19000001 cycles:   20470731 heartbeat IPC: 0.92491 cumulative IPC: 0.92815 (Simulation time: 0 hr 0 min 22 sec) 
Heartbeat CPU  0 instructions:   20000000 cycles:   21562597 heartbeat IPC: 0.91586 cumulative IPC: 0.92753 (Simulation time: 0 hr 0 min 24 sec) 
Heartbeat CPU  0 instructions:   21000000 cycles:   22755071 heartbeat IPC: 0.83859 cumulative IPC: 0.92287 (Simulation time: 0 hr 0 min 25 sec) 
Heartbeat CPU  0 instructions:   22000003 cycles:   23882449 heartbeat IPC: 0.88702 cumulative IPC: 0.92118 (Simulation time: 0 hr 0 min 26 sec) 
Heartbeat CPU  0 instructions:   23000001 cycles:   24932580 heartbeat IPC: 0.95226 cumulative IPC: 0.92249 (Simulation time: 0 hr 0 min 27 sec) 
Heartbeat CPU  0 instructions:   24000000 cycles:   26049412 heartbeat IPC: 0.89539 cumulative IPC: 0.92133 (Simulation time: 0 hr 0 min 28 sec) 
Heartbeat CPU  0 instructions:   25000000 cycles:   26928654 heartbeat IPC: 1.13734 cumulative IPC: 0.92838 (Simulation time: 0 hr 0 min 29 sec) 
Heartbeat CPU  0 instructions:   26000000 cycles:   27898895 heartbeat IPC: 1.03067 cumulative IPC: 0.93194 (Simulation time: 0 hr 0 min 30 sec) 
Heartbeat CPU  0 instructions:   27000002 cycles:   29001582 heartbeat IPC: 0.90688 cumulative IPC: 0.93098 (Simulation time: 0 hr 0 min 32 sec) 
Heartbeat CPU  0 instructions:   28000000 cycles:   30122314 heartbeat IPC: 0.89227 cumulative IPC: 0.92954 (Simulation time: 0 hr 0 min 33 sec) 
Heartbeat CPU  0 instructions:   29000003 cycles:   31188369 heartbeat IPC: 0.93804 cumulative IPC: 0.92983 (Simulation time: 0 hr 0 min 34 sec) 
Heartbeat CPU  0 instructions:   30000002 cycles:   32280922 heartbeat IPC: 0.91529 cumulative IPC: 0.92934 (Simulation time: 0 hr 0 min 35 sec) 
Heartbeat CPU  0 instructions:   31000003 cycles:   33383337 heartbeat IPC: 0.90710 cumulative IPC: 0.92861 (Simulation time: 0 hr 0 min 36 sec) 
Heartbeat CPU  0 instructions:   32000000 cycles:   34483045 heartbeat IPC: 0.90933 cumulative IPC: 0.92799 (Simulation time: 0 hr 0 min 37 sec) 
Heartbeat CPU  0 instructions:   33000001 cycles:   35470331 heartbeat IPC: 1.01288 cumulative IPC: 0.93036 (Simulation time: 0 hr 0 min 39 sec) 
Heartbeat CPU  0 instructions:   34000001 cycles:   36608263 heartbeat IPC: 0.87879 cumulative IPC: 0.92875 (Simulation time: 0 hr 0 min 40 sec) 
Heartbeat CPU  0 instructions:   35000003 cycles:   37680614 heartbeat IPC: 0.93253 cumulative IPC: 0.92886 (Simulation time: 0 hr 0 min 41 sec) 
Heartbeat CPU  0 instructions:   36000000 cycles:   38872235 heartbeat IPC: 0.83919 cumulative IPC: 0.92611 (Simulation time: 0 hr 0 min 42 sec) 
Heartbeat CPU  0 instructions:   37000002 cycles:   39988264 heartbeat IPC: 0.89604 cumulative IPC: 0.92527 (Simulation time: 0 hr 0 min 43 sec) 
Heartbeat CPU  0 instructions:   38000000 cycles:   41038264 heartbeat IPC: 0.95238 cumulative IPC: 0.92597 (Simulation time: 0 hr 0 min 45 sec) 
Heartbeat CPU  0 instructions:   39000001 cycles:   41931809 heartbeat IPC: 1.11914 cumulative IPC: 0.93008 (Simulation time: 0 hr 0 min 46 sec) 
Heartbeat CPU  0 instructions:   40000000 cycles:   42889690 heartbeat IPC: 1.04397 cumulative IPC: 0.93263 (Simulation time: 0 hr 0 min 47 sec) 
Heartbeat CPU  0 instructions:   41000000 cycles:   43991062 heartbeat IPC: 0.90796 cumulative IPC: 0.93201 (Simulation time: 0 hr 0 min 48 sec) 
Heartbeat CPU  0 instructions:   42000000 cycles:   45116155 heartbeat IPC: 0.88882 cumulative IPC: 0.93093 (Simulation time: 0 hr 0 min 49 sec) 
Heartbeat CPU  0 instructions:   43000003 cycles:   46183786 heartbeat IPC: 0.93666 cumulative IPC: 0.93106 (Simulation time: 0 hr 0 min 50 sec) 
Heartbeat CPU  0 instructions:   44000000 cycles:   47303737 heartbeat IPC: 0.89289 cumulative IPC: 0.93016 (Simulation time: 0 hr 0 min 51 sec) 
Heartbeat CPU  0 instructions:   45000001 cycles:   48337483 heartbeat IPC: 0.96736 cumulative IPC: 0.93095 (Simulation time: 0 hr 0 min 53 sec) 
Heartbeat CPU  0 instructions:   46000000 cycles:   49423935 heartbeat IPC: 0.92043 cumulative IPC: 0.93072 (Simulation time: 0 hr 0 min 54 sec) 
Heartbeat CPU  0 instructions:   47000003 cycles:   50532252 heartbeat IPC: 0.90227 cumulative IPC: 0.93010 (Simulation time: 0 hr 0 min 55 sec) 
Heartbeat CPU  0 instructions:   48000000 cycles:   51501490 heartbeat IPC: 1.03174 cumulative IPC: 0.93201 (Simulation time: 0 hr 0 min 56 sec) 
Heartbeat CPU  0 instructions:   49000000 cycles:   52616056 heartbeat IPC: 0.89721 cumulative IPC: 0.93127 (Simulation time: 0 hr 0 min 57 sec) 
Heartbeat CPU  0 instructions:   50000000 cycles:   53700125 heartbeat IPC: 0.92245 cumulative IPC: 0.93110 (Simulation time: 0 hr 0 min 59 sec) 
Heartbeat CPU  0 instructions:   51000001 cycles:   54767502 heartbeat IPC: 0.93688 cumulative IPC: 0.93121 (Simulation time: 0 hr 1 min 0 sec) 
Heartbeat CPU  0 instructions:   52000000 cycles:   55897224 heartbeat IPC: 0.88517 cumulative IPC: 0.93028 (Simulation time: 0 hr 1 min 1 sec) 
Heartbeat CPU  0 instructions:   53000000 cycles:   57003812 heartbeat IPC: 0.90368 cumulative IPC: 0.92976 (Simulation time: 0 hr 1 min 2 sec) 
Heartbeat CPU  0 instructions:   54000001 cycles:   58200480 heartbeat IPC: 0.83565 cumulative IPC: 0.92783 (Simulation time: 0 hr 1 min 3 sec) 
Heartbeat CPU  0 instructions:   55000002 cycles:   59320192 heartbeat IPC: 0.89309 cumulative IPC: 0.92717 (Simulation time: 0 hr 1 min 4 sec) 
Heartbeat CPU  0 instructions:   56000000 cycles:   60386056 heartbeat IPC: 0.93820 cumulative IPC: 0.92737 (Simulation time: 0 hr 1 min 6 sec) 
Heartbeat CPU  0 instructions:   57000000 cycles:   61474124 heartbeat IPC: 0.91906 cumulative IPC: 0.92722 (Simulation time: 0 hr 1 min 7 sec) 
Heartbeat CPU  0 instructions:   58000001 cycles:   62563421 heartbeat IPC: 0.91802 cumulative IPC: 0.92706 (Simulation time: 0 hr 1 min 8 sec) 
Heartbeat CPU  0 instructions:   59000000 cycles:   63438160 heartbeat IPC: 1.14320 cumulative IPC: 0.93004 (Simulation time: 0 hr 1 min 9 sec) 
Heartbeat CPU  0 instructions:   60000000 cycles:   64557188 heartbeat IPC: 0.89363 cumulative IPC: 0.92941 (Simulation time: 0 hr 1 min 10 sec) 
Heartbeat CPU  0 instructions:   61000000 cycles:   65653480 heartbeat IPC: 0.91217 cumulative IPC: 0.92912 (Simulation time: 0 hr 1 min 11 sec) 
Heartbeat CPU  0 instructions:   62000000 cycles:   66731791 heartbeat IPC: 0.92738 cumulative IPC: 0.92909 (Simulation time: 0 hr 1 min 13 sec) 
Heartbeat CPU  0 instructions:   63000001 cycles:   67749194 heartbeat IPC: 0.98290 cumulative IPC: 0.92990 (Simulation time: 0 hr 1 min 14 sec) 
Heartbeat CPU  0 instructions:   64000000 cycles:   68871709 heartbeat IPC: 0.89086 cumulative IPC: 0.92926 (Simulation time: 0 hr 1 min 15 sec) 
Heartbeat CPU  0 instructions:   65000000 cycles:   69947117 heartbeat IPC: 0.92988 cumulative IPC: 0.92927 (Simulation time: 0 hr 1 min 16 sec) 
Heartbeat CPU  0 instructions:   66000000 cycles:   71003999 heartbeat IPC: 0.94618 cumulative IPC: 0.92953 (Simulation time: 0 hr 1 min 17 sec) 
Heartbeat CPU  0 instructions:   67000000 cycles:   72117566 heartbeat IPC: 0.89802 cumulative IPC: 0.92904 (Simulation time: 0 hr 1 min 19 sec) 
Heartbeat CPU  0 instructions:   68000000 cycles:   73206019 heartbeat IPC: 0.91874 cumulative IPC: 0.92889 (Simulation time: 0 hr 1 min 20 sec) 
Heartbeat CPU  0 instructions:   69000001 cycles:   74314681 heartbeat IPC: 0.90199 cumulative IPC: 0.92848 (Simulation time: 0 hr 1 min 21 sec) 
Heartbeat CPU  0 instructions:   70000000 cycles:   75287621 heartbeat IPC: 1.02781 cumulative IPC: 0.92977 (Simulation time: 0 hr 1 min 22 sec) 
Heartbeat CPU  0 instructions:   71000000 cycles:   76202676 heartbeat IPC: 1.09283 cumulative IPC: 0.93173 (Simulation time: 0 hr 1 min 23 sec) 
Heartbeat CPU  0 instructions:   72000000 cycles:   77302224 heartbeat IPC: 0.90946 cumulative IPC: 0.93141 (Simulation time: 0 hr 1 min 25 sec) 
Heartbeat CPU  0 instructions:   73000001 cycles:   78364359 heartbeat IPC: 0.94150 cumulative IPC: 0.93155 (Simulation time: 0 hr 1 min 26 sec) 
Heartbeat CPU  0 instructions:   74000000 cycles:   79431226 heartbeat IPC: 0.93732 cumulative IPC: 0.93162 (Simulation time: 0 hr 1 min 27 sec) 
Heartbeat CPU  0 instructions:   75000001 cycles:   80373772 heartbeat IPC: 1.06096 cumulative IPC: 0.93314 (Simulation time: 0 hr 1 min 28 sec) 
Heartbeat CPU  0 instructions:   76000000 cycles:   81361815 heartbeat IPC: 1.01210 cumulative IPC: 0.93410 (Simulation time: 0 hr 1 min 29 sec) 
Heartbeat CPU  0 instructions:   77000002 cycles:   82403460 heartbeat IPC: 0.96002 cumulative IPC: 0.93443 (Simulation time: 0 hr 1 min 31 sec) 
Heartbeat CPU  0 instructions:   78000000 cycles:   83354780 heartbeat IPC: 1.05117 cumulative IPC: 0.93576 (Simulation time: 0 hr 1 min 32 sec) 
Heartbeat CPU  0 instructions:   79000003 cycles:   84385471 heartbeat IPC: 0.97023 cumulative IPC: 0.93618 (Simulation time: 0 hr 1 min 33 sec) 
Heartbeat CPU  0 instructions:   80000000 cycles:   85451917 heartbeat IPC: 0.93769 cumulative IPC: 0.93620 (Simulation time: 0 hr 1 min 34 sec) 
Heartbeat CPU  0 instructions:   81000003 cycles:   86540407 heartbeat IPC: 0.91871 cumulative IPC: 0.93598 (Simulation time: 0 hr 1 min 35 sec) 
Heartbeat CPU  0 instructions:   82000000 cycles:   87615393 heartbeat IPC: 0.93024 cumulative IPC: 0.93591 (Simulation time: 0 hr 1 min 37 sec) 
Heartbeat CPU  0 instructions:   83000001 cycles:   88714619 heartbeat IPC: 0.90973 cumulative IPC: 0.93558 (Simulation time: 0 hr 1 min 38 sec) 
Heartbeat CPU  0 instructions:   84000000 cycles:   89753625 heartbeat IPC: 0.96246 cumulative IPC: 0.93590 (Simulation time: 0 hr 1 min 39 sec) 
Heartbeat CPU  0 instructions:   85000000 cycles:   90753305 heartbeat IPC: 1.00032 cumulative IPC: 0.93661 (Simulation time: 0 hr 1 min 40 sec) 
Heartbeat CPU  0 instructions:   86000000 cycles:   91839468 heartbeat IPC: 0.92067 cumulative IPC: 0.93642 (Simulation time: 0 hr 1 min 41 sec) 
Heartbeat CPU  0 instructions:   87000002 cycles:   92926293 heartbeat IPC: 0.92011 cumulative IPC: 0.93623 (Simulation time: 0 hr 1 min 43 sec) 
Heartbeat CPU  0 instructions:   88000000 cycles:   93996482 heartbeat IPC: 0.93441 cumulative IPC: 0.93621 (Simulation time: 0 hr 1 min 44 sec) 
Heartbeat CPU  0 instructions:   89000002 cycles:   95095848 heartbeat IPC: 0.90962 cumulative IPC: 0.93590 (Simulation time: 0 hr 1 min 45 sec) 
Heartbeat CPU  0 instructions:   90000002 cycles:   96183251 heartbeat IPC: 0.91962 cumulative IPC: 0.93571 (Simulation time: 0 hr 1 min 46 sec) 
Heartbeat CPU  0 instructions:   91000001 cycles:   97249754 heartbeat IPC: 0.93764 cumulative IPC: 0.93574 (Simulation time: 0 hr 1 min 47 sec) 
Heartbeat CPU  0 instructions:   92000000 cycles:   98368550 heartbeat IPC: 0.89382 cumulative IPC: 0.93526 (Simulation time: 0 hr 1 min 48 sec) 
Heartbeat CPU  0 instructions:   93000000 cycles:   99407910 heartbeat IPC: 0.96213 cumulative IPC: 0.93554 (Simulation time: 0 hr 1 min 50 sec) 
Heartbeat CPU  0 instructions:   94000001 cycles:  100526176 heartbeat IPC: 0.89424 cumulative IPC: 0.93508 (Simulation time: 0 hr 1 min 51 sec) 
Heartbeat CPU  0 instructions:   95000001 cycles:  101618218 heartbeat IPC: 0.91572 cumulative IPC: 0.93487 (Simulation time: 0 hr 1 min 52 sec) 
Heartbeat CPU  0 instructions:   96000000 cycles:  102708007 heartbeat IPC: 0.91761 cumulative IPC: 0.93469 (Simulation time: 0 hr 1 min 53 sec) 
Heartbeat CPU  0 instructions:   97000001 cycles:  103836286 heartbeat IPC: 0.88631 cumulative IPC: 0.93416 (Simulation time: 0 hr 1 min 54 sec) 
Heartbeat CPU  0 instructions:   98000000 cycles:  104935037 heartbeat IPC: 0.91012 cumulative IPC: 0.93391 (Simulation time: 0 hr 1 min 56 sec) 
Heartbeat CPU  0 instructions:   99000003 cycles:  106006636 heartbeat IPC: 0.93319 cumulative IPC: 0.93390 (Simulation time: 0 hr 1 min 57 sec) 
Heartbeat CPU  0 instructions:  100000000 cycles:  107092208 heartbeat IPC: 0.92117 cumulative IPC: 0.93377 (Simulation time: 0 hr 1 min 58 sec) 

Warmup complete CPU  0 instructions:  100000001 cycles:  107092210 (Simulation time: 0 hr 1 min 58 sec) 

Heartbeat CPU  0 instructions:  101000000 cycles:  109769165 heartbeat IPC: 0.37356 cumulative IPC: 0.37356 (Simulation time: 0 hr 2 min 0 sec) 
Heartbeat CPU  0 instructions:  102000000 cycles:  112424119 heartbeat IPC: 0.37665 cumulative IPC: 0.37510 (Simulation time: 0 hr 2 min 2 sec) 
Heartbeat CPU  0 instructions:  103000000 cycles:  115082752 heartbeat IPC: 0.37613 cumulative IPC: 0.37544 (Simulation time: 0 hr 2 min 3 sec) 
Heartbeat CPU  0 instructions:  104000000 cycles:  117647176 heartbeat IPC: 0.38995 cumulative IPC: 0.37897 (Simulation time: 0 hr 2 min 5 sec) 
Heartbeat CPU  0 instructions:  105000003 cycles:  120385922 heartbeat IPC: 0.36513 cumulative IPC: 0.37612 (Simulation time: 0 hr 2 min 7 sec) 
Heartbeat CPU  0 instructions:  106000001 cycles:  123082687 heartbeat IPC: 0.37081 cumulative IPC: 0.37522 (Simulation time: 0 hr 2 min 9 sec) 
Heartbeat CPU  0 instructions:  107000003 cycles:  125783573 heartbeat IPC: 0.37025 cumulative IPC: 0.37450 (Simulation time: 0 hr 2 min 11 sec) 
Heartbeat CPU  0 instructions:  108000000 cycles:  128608797 heartbeat IPC: 0.35395 cumulative IPC: 0.37181 (Simulation time: 0 hr 2 min 13 sec) 
Heartbeat CPU  0 instructions:  109000000 cycles:  131404477 heartbeat IPC: 0.35769 cumulative IPC: 0.37018 (Simulation time: 0 hr 2 min 15 sec) 
Heartbeat CPU  0 instructions:  110000002 cycles:  134084035 heartbeat IPC: 0.37320 cumulative IPC: 0.37048 (Simulation time: 0 hr 2 min 17 sec) 
Heartbeat CPU  0 instructions:  111000002 cycles:  136664953 heartbeat IPC: 0.38746 cumulative IPC: 0.37196 (Simulation time: 0 hr 2 min 18 sec) 
Heartbeat CPU  0 instructions:  112000000 cycles:  139421153 heartbeat IPC: 0.36282 cumulative IPC: 0.37118 (Simulation time: 0 hr 2 min 20 sec) 
Heartbeat CPU  0 instructions:  113000001 cycles:  142280345 heartbeat IPC: 0.34975 cumulative IPC: 0.36944 (Simulation time: 0 hr 2 min 22 sec) 
Heartbeat CPU  0 instructions:  114000000 cycles:  145105464 heartbeat IPC: 0.35397 cumulative IPC: 0.36829 (Simulation time: 0 hr 2 min 24 sec) 
Heartbeat CPU  0 instructions:  115000000 cycles:  147821839 heartbeat IPC: 0.36814 cumulative IPC: 0.36828 (Simulation time: 0 hr 2 min 26 sec) 
Heartbeat CPU  0 instructions:  116000000 cycles:  150591776 heartbeat IPC: 0.36102 cumulative IPC: 0.36782 (Simulation time: 0 hr 2 min 28 sec) 
Heartbeat CPU  0 instructions:  117000002 cycles:  153324345 heartbeat IPC: 0.36596 cumulative IPC: 0.36771 (Simulation time: 0 hr 2 min 30 sec) 
Heartbeat CPU  0 instructions:  118000000 cycles:  156073024 heartbeat IPC: 0.36381 cumulative IPC: 0.36749 (Simulation time: 0 hr 2 min 32 sec) 
Heartbeat CPU  0 instructions:  119000000 cycles:  158831407 heartbeat IPC: 0.36253 cumulative IPC: 0.36723 (Simulation time: 0 hr 2 min 34 sec) 
Heartbeat CPU  0 instructions:  120000000 cycles:  161667772 heartbeat IPC: 0.35256 cumulative IPC: 0.36646 (Simulation time: 0 hr 2 min 35 sec) 
Heartbeat CPU  0 instructions:  121000000 cycles:  164382946 heartbeat IPC: 0.36830 cumulative IPC: 0.36655 (Simulation time: 0 hr 2 min 37 sec) 
Heartbeat CPU  0 instructions:  122000001 cycles:  167129752 heartbeat IPC: 0.36406 cumulative IPC: 0.36644 (Simulation time: 0 hr 2 min 39 sec) 
Heartbeat CPU  0 instructions:  123000001 cycles:  169822702 heartbeat IPC: 0.37134 cumulative IPC: 0.36665 (Simulation time: 0 hr 2 min 41 sec) 
Heartbeat CPU  0 instructions:  124000000 cycles:  172464314 heartbeat IPC: 0.37856 cumulative IPC: 0.36713 (Simulation time: 0 hr 2 min 43 sec) 
Heartbeat CPU  0 instructions:  125000003 cycles:  175096767 heartbeat IPC: 0.37987 cumulative IPC: 0.36762 (Simulation time: 0 hr 2 min 45 sec) 
Heartbeat CPU  0 instructions:  126000000 cycles:  177752916 heartbeat IPC: 0.37648 cumulative IPC: 0.36796 (Simulation time: 0 hr 2 min 47 sec) 
Heartbeat CPU  0 instructions:  127000001 cycles:  180618711 heartbeat IPC: 0.34894 cumulative IPC: 0.36721 (Simulation time: 0 hr 2 min 49 sec) 
Heartbeat CPU  0 instructions:  128000000 cycles:  183328671 heartbeat IPC: 0.36901 cumulative IPC: 0.36728 (Simulation time: 0 hr 2 min 50 sec) 
Heartbeat CPU  0 instructions:  129000001 cycles:  186178824 heartbeat IPC: 0.35086 cumulative IPC: 0.36669 (Simulation time: 0 hr 2 min 52 sec) 
Heartbeat CPU  0 instructions:  130000000 cycles:  189032317 heartbeat IPC: 0.35045 cumulative IPC: 0.36612 (Simulation time: 0 hr 2 min 54 sec) 
Heartbeat CPU  0 instructions:  131000000 cycles:  191778970 heartbeat IPC: 0.36408 cumulative IPC: 0.36605 (Simulation time: 0 hr 2 min 56 sec) 
Heartbeat CPU  0 instructions:  132000000 cycles:  194534750 heartbeat IPC: 0.36287 cumulative IPC: 0.36595 (Simulation time: 0 hr 2 min 58 sec) 
Heartbeat CPU  0 instructions:  133000001 cycles:  197248178 heartbeat IPC: 0.36854 cumulative IPC: 0.36603 (Simulation time: 0 hr 3 min 0 sec) 
Heartbeat CPU  0 instructions:  134000000 cycles:  200004574 heartbeat IPC: 0.36279 cumulative IPC: 0.36594 (Simulation time: 0 hr 3 min 2 sec) 
Heartbeat CPU  0 instructions:  135000000 cycles:  202790559 heartbeat IPC: 0.35894 cumulative IPC: 0.36573 (Simulation time: 0 hr 3 min 4 sec) 
Heartbeat CPU  0 instructions:  136000000 cycles:  205567886 heartbeat IPC: 0.36006 cumulative IPC: 0.36557 (Simulation time: 0 hr 3 min 6 sec) 
Heartbeat CPU  0 instructions:  137000000 cycles:  208301547 heartbeat IPC: 0.36581 cumulative IPC: 0.36558 (Simulation time: 0 hr 3 min 8 sec) 
Heartbeat CPU  0 instructions:  138000000 cycles:  210895300 heartbeat IPC: 0.38554 cumulative IPC: 0.36608 (Simulation time: 0 hr 3 min 9 sec) 
Heartbeat CPU  0 instructions:  139000002 cycles:  213557613 heartbeat IPC: 0.37561 cumulative IPC: 0.36632 (Simulation time: 0 hr 3 min 11 sec) 
Heartbeat CPU  0 instructions:  140000000 cycles:  216297633 heartbeat IPC: 0.36496 cumulative IPC: 0.36628 (Simulation time: 0 hr 3 min 13 sec) 
Heartbeat CPU  0 instructions:  141000003 cycles:  219032028 heartbeat IPC: 0.36571 cumulative IPC: 0.36627 (Simulation time: 0 hr 3 min 15 sec) 
Heartbeat CPU  0 instructions:  142000000 cycles:  221704932 heartbeat IPC: 0.37412 cumulative IPC: 0.36645 (Simulation time: 0 hr 3 min 17 sec) 
Heartbeat CPU  0 instructions:  143000001 cycles:  224357534 heartbeat IPC: 0.37699 cumulative IPC: 0.36669 (Simulation time: 0 hr 3 min 19 sec) 
Heartbeat CPU  0 instructions:  144000000 cycles:  225897289 heartbeat IPC: 0.64945 cumulative IPC: 0.37035 (Simulation time: 0 hr 3 min 21 sec) 
Heartbeat CPU  0 instructions:  145000002 cycles:  226840121 heartbeat IPC: 1.06064 cumulative IPC: 0.37579 (Simulation time: 0 hr 3 min 23 sec) 
Heartbeat CPU  0 instructions:  146000000 cycles:  227587347 heartbeat IPC: 1.33828 cumulative IPC: 0.38176 (Simulation time: 0 hr 3 min 25 sec) 
Heartbeat CPU  0 instructions:  147000000 cycles:  228373150 heartbeat IPC: 1.27258 cumulative IPC: 0.38753 (Simulation time: 0 hr 3 min 27 sec) 
Heartbeat CPU  0 instructions:  148000000 cycles:  229232460 heartbeat IPC: 1.16372 cumulative IPC: 0.39299 (Simulation time: 0 hr 3 min 29 sec) 
Heartbeat CPU  0 instructions:  149000001 cycles:  230581025 heartbeat IPC: 0.74153 cumulative IPC: 0.39680 (Simulation time: 0 hr 3 min 31 sec) 
Heartbeat CPU  0 instructions:  150000000 cycles:  231947005 heartbeat IPC: 0.73207 cumulative IPC: 0.40047 (Simulation time: 0 hr 3 min 33 sec) 
Heartbeat CPU  0 instructions:  151000001 cycles:  233367300 heartbeat IPC: 0.70408 cumulative IPC: 0.40388 (Simulation time: 0 hr 3 min 36 sec) 
Heartbeat CPU  0 instructions:  152000000 cycles:  235018989 heartbeat IPC: 0.60544 cumulative IPC: 0.40648 (Simulation time: 0 hr 3 min 38 sec) 
Heartbeat CPU  0 instructions:  153000001 cycles:  237118942 heartbeat IPC: 0.47620 cumulative IPC: 0.40761 (Simulation time: 0 hr 3 min 41 sec) 
Heartbeat CPU  0 instructions:  154000002 cycles:  239219933 heartbeat IPC: 0.47597 cumulative IPC: 0.40870 (Simulation time: 0 hr 3 min 44 sec) 
Heartbeat CPU  0 instructions:  155000003 cycles:  240403361 heartbeat IPC: 0.84500 cumulative IPC: 0.41257 (Simulation time: 0 hr 3 min 46 sec) 
Heartbeat CPU  0 instructions:  156000000 cycles:  241205685 heartbeat IPC: 1.24638 cumulative IPC: 0.41756 (Simulation time: 0 hr 3 min 48 sec) 
Heartbeat CPU  0 instructions:  157000001 cycles:  241996636 heartbeat IPC: 1.26430 cumulative IPC: 0.42252 (Simulation time: 0 hr 3 min 50 sec) 
Heartbeat CPU  0 instructions:  158000003 cycles:  242825649 heartbeat IPC: 1.20626 cumulative IPC: 0.42731 (Simulation time: 0 hr 3 min 52 sec) 
Heartbeat CPU  0 instructions:  159000002 cycles:  244246160 heartbeat IPC: 0.70397 cumulative IPC: 0.43017 (Simulation time: 0 hr 3 min 54 sec) 
Heartbeat CPU  0 instructions:  160000000 cycles:  245640198 heartbeat IPC: 0.71734 cumulative IPC: 0.43306 (Simulation time: 0 hr 3 min 57 sec) 
Heartbeat CPU  0 instructions:  161000003 cycles:  247010489 heartbeat IPC: 0.72977 cumulative IPC: 0.43597 (Simulation time: 0 hr 3 min 59 sec) 
Heartbeat CPU  0 instructions:  162000000 cycles:  248956589 heartbeat IPC: 0.51385 cumulative IPC: 0.43704 (Simulation time: 0 hr 4 min 2 sec) 
Heartbeat CPU  0 instructions:  163000000 cycles:  251097062 heartbeat IPC: 0.46719 cumulative IPC: 0.43749 (Simulation time: 0 hr 4 min 5 sec) 
Heartbeat CPU  0 instructions:  164000000 cycles:  253147426 heartbeat IPC: 0.48772 cumulative IPC: 0.43819 (Simulation time: 0 hr 4 min 7 sec) 
Heartbeat CPU  0 instructions:  165000003 cycles:  255727438 heartbeat IPC: 0.38760 cumulative IPC: 0.43731 (Simulation time: 0 hr 4 min 9 sec) 
Heartbeat CPU  0 instructions:  166000000 cycles:  258563168 heartbeat IPC: 0.35264 cumulative IPC: 0.43573 (Simulation time: 0 hr 4 min 11 sec) 
Heartbeat CPU  0 instructions:  167000002 cycles:  261349029 heartbeat IPC: 0.35896 cumulative IPC: 0.43434 (Simulation time: 0 hr 4 min 13 sec) 
Heartbeat CPU  0 instructions:  168000000 cycles:  264128903 heartbeat IPC: 0.35973 cumulative IPC: 0.43302 (Simulation time: 0 hr 4 min 15 sec) 
Heartbeat CPU  0 instructions:  169000000 cycles:  266941591 heartbeat IPC: 0.35553 cumulative IPC: 0.43166 (Simulation time: 0 hr 4 min 17 sec) 
Heartbeat CPU  0 instructions:  170000003 cycles:  269730244 heartbeat IPC: 0.35860 cumulative IPC: 0.43040 (Simulation time: 0 hr 4 min 18 sec) 
Heartbeat CPU  0 instructions:  171000000 cycles:  272440392 heartbeat IPC: 0.36898 cumulative IPC: 0.42940 (Simulation time: 0 hr 4 min 20 sec) 
Heartbeat CPU  0 instructions:  172000000 cycles:  275220850 heartbeat IPC: 0.35965 cumulative IPC: 0.42824 (Simulation time: 0 hr 4 min 22 sec) 
Heartbeat CPU  0 instructions:  173000000 cycles:  277916920 heartbeat IPC: 0.37091 cumulative IPC: 0.42734 (Simulation time: 0 hr 4 min 24 sec) 
Heartbeat CPU  0 instructions:  174000000 cycles:  280701625 heartbeat IPC: 0.35910 cumulative IPC: 0.42624 (Simulation time: 0 hr 4 min 26 sec) 
Heartbeat CPU  0 instructions:  175000001 cycles:  283479056 heartbeat IPC: 0.36005 cumulative IPC: 0.42520 (Simulation time: 0 hr 4 min 28 sec) 
Heartbeat CPU  0 instructions:  176000000 cycles:  286266550 heartbeat IPC: 0.35874 cumulative IPC: 0.42417 (Simulation time: 0 hr 4 min 30 sec) 
Heartbeat CPU  0 instructions:  177000000 cycles:  289053816 heartbeat IPC: 0.35877 cumulative IPC: 0.42317 (Simulation time: 0 hr 4 min 32 sec) 
Heartbeat CPU  0 instructions:  178000001 cycles:  291779467 heartbeat IPC: 0.36689 cumulative IPC: 0.42234 (Simulation time: 0 hr 4 min 34 sec) 
Heartbeat CPU  0 instructions:  179000003 cycles:  294398446 heartbeat IPC: 0.38183 cumulative IPC: 0.42177 (Simulation time: 0 hr 4 min 35 sec) 
Heartbeat CPU  0 instructions:  180000000 cycles:  297149593 heartbeat IPC: 0.36348 cumulative IPC: 0.42093 (Simulation time: 0 hr 4 min 37 sec) 
Heartbeat CPU  0 instructions:  181000000 cycles:  299638785 heartbeat IPC: 0.40174 cumulative IPC: 0.42068 (Simulation time: 0 hr 4 min 39 sec) 
Heartbeat CPU  0 instructions:  182000000 cycles:  302326149 heartbeat IPC: 0.37211 cumulative IPC: 0.42001 (Simulation time: 0 hr 4 min 41 sec) 
Heartbeat CPU  0 instructions:  183000000 cycles:  304910984 heartbeat IPC: 0.38687 cumulative IPC: 0.41958 (Simulation time: 0 hr 4 min 43 sec) 
Heartbeat CPU  0 instructions:  184000000 cycles:  307393171 heartbeat IPC: 0.40287 cumulative IPC: 0.41937 (Simulation time: 0 hr 4 min 45 sec) 
Heartbeat CPU  0 instructions:  185000000 cycles:  310013856 heartbeat IPC: 0.38158 cumulative IPC: 0.41888 (Simulation time: 0 hr 4 min 46 sec) 
Heartbeat CPU  0 instructions:  186000000 cycles:  312723541 heartbeat IPC: 0.36905 cumulative IPC: 0.41822 (Simulation time: 0 hr 4 min 48 sec) 
Heartbeat CPU  0 instructions:  187000000 cycles:  315309095 heartbeat IPC: 0.38676 cumulative IPC: 0.41783 (Simulation time: 0 hr 4 min 50 sec) 
Heartbeat CPU  0 instructions:  188000000 cycles:  317707104 heartbeat IPC: 0.41701 cumulative IPC: 0.41782 (Simulation time: 0 hr 4 min 52 sec) 
Heartbeat CPU  0 instructions:  189000000 cycles:  320351717 heartbeat IPC: 0.37813 cumulative IPC: 0.41733 (Simulation time: 0 hr 4 min 54 sec) 
Heartbeat CPU  0 instructions:  190000000 cycles:  322915996 heartbeat IPC: 0.38997 cumulative IPC: 0.41701 (Simulation time: 0 hr 4 min 56 sec) 
Heartbeat CPU  0 instructions:  191000001 cycles:  325541489 heartbeat IPC: 0.38088 cumulative IPC: 0.41657 (Simulation time: 0 hr 4 min 58 sec) 
Heartbeat CPU  0 instructions:  192000000 cycles:  328138829 heartbeat IPC: 0.38501 cumulative IPC: 0.41620 (Simulation time: 0 hr 5 min 0 sec) 
Heartbeat CPU  0 instructions:  193000001 cycles:  330687927 heartbeat IPC: 0.39230 cumulative IPC: 0.41593 (Simulation time: 0 hr 5 min 1 sec) 
Heartbeat CPU  0 instructions:  194000000 cycles:  332733996 heartbeat IPC: 0.48874 cumulative IPC: 0.41659 (Simulation time: 0 hr 5 min 3 sec) 
Heartbeat CPU  0 instructions:  195000000 cycles:  335365766 heartbeat IPC: 0.37997 cumulative IPC: 0.41617 (Simulation time: 0 hr 5 min 5 sec) 
Heartbeat CPU  0 instructions:  196000000 cycles:  337987789 heartbeat IPC: 0.38138 cumulative IPC: 0.41577 (Simulation time: 0 hr 5 min 7 sec) 
Heartbeat CPU  0 instructions:  197000002 cycles:  340553698 heartbeat IPC: 0.38973 cumulative IPC: 0.41549 (Simulation time: 0 hr 5 min 9 sec) 
Heartbeat CPU  0 instructions:  198000000 cycles:  343084522 heartbeat IPC: 0.39513 cumulative IPC: 0.41527 (Simulation time: 0 hr 5 min 11 sec) 
Heartbeat CPU  0 instructions:  199000000 cycles:  345607698 heartbeat IPC: 0.39633 cumulative IPC: 0.41507 (Simulation time: 0 hr 5 min 12 sec) 
Heartbeat CPU  0 instructions:  200000000 cycles:  348185261 heartbeat IPC: 0.38796 cumulative IPC: 0.41478 (Simulation time: 0 hr 5 min 14 sec) 
Heartbeat CPU  0 instructions:  201000002 cycles:  350862573 heartbeat IPC: 0.37351 cumulative IPC: 0.41432 (Simulation time: 0 hr 5 min 16 sec) 
Heartbeat CPU  0 instructions:  202000001 cycles:  353574351 heartbeat IPC: 0.36876 cumulative IPC: 0.41382 (Simulation time: 0 hr 5 min 18 sec) 
Heartbeat CPU  0 instructions:  203000000 cycles:  356161536 heartbeat IPC: 0.38652 cumulative IPC: 0.41354 (Simulation time: 0 hr 5 min 20 sec) 
Heartbeat CPU  0 instructions:  204000000 cycles:  358698505 heartbeat IPC: 0.39417 cumulative IPC: 0.41334 (Simulation time: 0 hr 5 min 22 sec) 
Heartbeat CPU  0 instructions:  205000002 cycles:  361328113 heartbeat IPC: 0.38029 cumulative IPC: 0.41300 (Simulation time: 0 hr 5 min 24 sec) 
Heartbeat CPU  0 instructions:  206000001 cycles:  363865105 heartbeat IPC: 0.39417 cumulative IPC: 0.41282 (Simulation time: 0 hr 5 min 26 sec) 
Heartbeat CPU  0 instructions:  207000000 cycles:  366446975 heartbeat IPC: 0.38732 cumulative IPC: 0.41256 (Simulation time: 0 hr 5 min 27 sec) 
Heartbeat CPU  0 instructions:  208000000 cycles:  369269579 heartbeat IPC: 0.35428 cumulative IPC: 0.41193 (Simulation time: 0 hr 5 min 29 sec) 
Heartbeat CPU  0 instructions:  209000003 cycles:  372104391 heartbeat IPC: 0.35276 cumulative IPC: 0.41130 (Simulation time: 0 hr 5 min 31 sec) 
Heartbeat CPU  0 instructions:  210000000 cycles:  374715718 heartbeat IPC: 0.38295 cumulative IPC: 0.41103 (Simulation time: 0 hr 5 min 33 sec) 
Heartbeat CPU  0 instructions:  211000000 cycles:  377586004 heartbeat IPC: 0.34840 cumulative IPC: 0.41036 (Simulation time: 0 hr 5 min 35 sec) 
Heartbeat CPU  0 instructions:  212000000 cycles:  380291758 heartbeat IPC: 0.36958 cumulative IPC: 0.40996 (Simulation time: 0 hr 5 min 37 sec) 
Heartbeat CPU  0 instructions:  213000002 cycles:  383041674 heartbeat IPC: 0.36365 cumulative IPC: 0.40950 (Simulation time: 0 hr 5 min 39 sec) 
Heartbeat CPU  0 instructions:  214000000 cycles:  385857076 heartbeat IPC: 0.35519 cumulative IPC: 0.40895 (Simulation time: 0 hr 5 min 41 sec) 
Heartbeat CPU  0 instructions:  215000001 cycles:  388655347 heartbeat IPC: 0.35736 cumulative IPC: 0.40843 (Simulation time: 0 hr 5 min 43 sec) 
Heartbeat CPU  0 instructions:  216000000 cycles:  391431245 heartbeat IPC: 0.36024 cumulative IPC: 0.40796 (Simulation time: 0 hr 5 min 45 sec) 
Heartbeat CPU  0 instructions:  217000000 cycles:  394219301 heartbeat IPC: 0.35867 cumulative IPC: 0.40749 (Simulation time: 0 hr 5 min 47 sec) 
Heartbeat CPU  0 instructions:  218000002 cycles:  397009277 heartbeat IPC: 0.35843 cumulative IPC: 0.40701 (Simulation time: 0 hr 5 min 48 sec) 
Heartbeat CPU  0 instructions:  219000000 cycles:  399775641 heartbeat IPC: 0.36148 cumulative IPC: 0.40658 (Simulation time: 0 hr 5 min 50 sec) 
Heartbeat CPU  0 instructions:  220000000 cycles:  402519399 heartbeat IPC: 0.36446 cumulative IPC: 0.40619 (Simulation time: 0 hr 5 min 52 sec) 
Heartbeat CPU  0 instructions:  221000003 cycles:  405331648 heartbeat IPC: 0.35559 cumulative IPC: 0.40571 (Simulation time: 0 hr 5 min 54 sec) 
Heartbeat CPU  0 instructions:  222000003 cycles:  408117562 heartbeat IPC: 0.35895 cumulative IPC: 0.40528 (Simulation time: 0 hr 5 min 56 sec) 
Heartbeat CPU  0 instructions:  223000000 cycles:  410847982 heartbeat IPC: 0.36624 cumulative IPC: 0.40493 (Simulation time: 0 hr 5 min 58 sec) 
Heartbeat CPU  0 instructions:  224000000 cycles:  413564035 heartbeat IPC: 0.36818 cumulative IPC: 0.40460 (Simulation time: 0 hr 6 min 0 sec) 
Heartbeat CPU  0 instructions:  225000000 cycles:  416202635 heartbeat IPC: 0.37899 cumulative IPC: 0.40439 (Simulation time: 0 hr 6 min 2 sec) 
Heartbeat CPU  0 instructions:  226000002 cycles:  418941590 heartbeat IPC: 0.36510 cumulative IPC: 0.40404 (Simulation time: 0 hr 6 min 4 sec) 
Heartbeat CPU  0 instructions:  227000000 cycles:  421682385 heartbeat IPC: 0.36486 cumulative IPC: 0.40370 (Simulation time: 0 hr 6 min 5 sec) 
Heartbeat CPU  0 instructions:  228000000 cycles:  424375993 heartbeat IPC: 0.37125 cumulative IPC: 0.40342 (Simulation time: 0 hr 6 min 7 sec) 
Heartbeat CPU  0 instructions:  229000003 cycles:  427182274 heartbeat IPC: 0.35634 cumulative IPC: 0.40301 (Simulation time: 0 hr 6 min 9 sec) 
Heartbeat CPU  0 instructions:  230000003 cycles:  429976873 heartbeat IPC: 0.35783 cumulative IPC: 0.40262 (Simulation time: 0 hr 6 min 11 sec) 
Heartbeat CPU  0 instructions:  231000000 cycles:  432765143 heartbeat IPC: 0.35864 cumulative IPC: 0.40224 (Simulation time: 0 hr 6 min 13 sec) 
Heartbeat CPU  0 instructions:  232000000 cycles:  435487709 heartbeat IPC: 0.36730 cumulative IPC: 0.40195 (Simulation time: 0 hr 6 min 15 sec) 
Heartbeat CPU  0 instructions:  233000001 cycles:  438226197 heartbeat IPC: 0.36517 cumulative IPC: 0.40165 (Simulation time: 0 hr 6 min 17 sec) 
Heartbeat CPU  0 instructions:  234000000 cycles:  440965521 heartbeat IPC: 0.36505 cumulative IPC: 0.40135 (Simulation time: 0 hr 6 min 19 sec) 
Heartbeat CPU  0 instructions:  235000000 cycles:  443685921 heartbeat IPC: 0.36759 cumulative IPC: 0.40108 (Simulation time: 0 hr 6 min 21 sec) 
Heartbeat CPU  0 instructions:  236000000 cycles:  446158592 heartbeat IPC: 0.40442 cumulative IPC: 0.40110 (Simulation time: 0 hr 6 min 22 sec) 
Heartbeat CPU  0 instructions:  237000001 cycles:  448502911 heartbeat IPC: 0.42656 cumulative IPC: 0.40128 (Simulation time: 0 hr 6 min 24 sec) 
Heartbeat CPU  0 instructions:  238000000 cycles:  451052994 heartbeat IPC: 0.39214 cumulative IPC: 0.40121 (Simulation time: 0 hr 6 min 26 sec) 
Heartbeat CPU  0 instructions:  239000000 cycles:  453821080 heartbeat IPC: 0.36126 cumulative IPC: 0.40089 (Simulation time: 0 hr 6 min 28 sec) 
Heartbeat CPU  0 instructions:  240000000 cycles:  456494708 heartbeat IPC: 0.37402 cumulative IPC: 0.40068 (Simulation time: 0 hr 6 min 30 sec) 
Heartbeat CPU  0 instructions:  241000000 cycles:  459198468 heartbeat IPC: 0.36986 cumulative IPC: 0.40045 (Simulation time: 0 hr 6 min 32 sec) 
Heartbeat CPU  0 instructions:  242000003 cycles:  462034663 heartbeat IPC: 0.35259 cumulative IPC: 0.40006 (Simulation time: 0 hr 6 min 34 sec) 
Heartbeat CPU  0 instructions:  243000001 cycles:  464804198 heartbeat IPC: 0.36107 cumulative IPC: 0.39976 (Simulation time: 0 hr 6 min 36 sec) 
Heartbeat CPU  0 instructions:  244000000 cycles:  467418861 heartbeat IPC: 0.38246 cumulative IPC: 0.39964 (Simulation time: 0 hr 6 min 37 sec) 
Heartbeat CPU  0 instructions:  245000000 cycles:  469980350 heartbeat IPC: 0.39040 cumulative IPC: 0.39957 (Simulation time: 0 hr 6 min 39 sec) 
Heartbeat CPU  0 instructions:  246000001 cycles:  472722104 heartbeat IPC: 0.36473 cumulative IPC: 0.39931 (Simulation time: 0 hr 6 min 41 sec) 
Heartbeat CPU  0 instructions:  247000002 cycles:  475377033 heartbeat IPC: 0.37666 cumulative IPC: 0.39915 (Simulation time: 0 hr 6 min 43 sec) 
Heartbeat CPU  0 instructions:  248000000 cycles:  477965031 heartbeat IPC: 0.38640 cumulative IPC: 0.39906 (Simulation time: 0 hr 6 min 45 sec) 
Heartbeat CPU  0 instructions:  249000003 cycles:  480519950 heartbeat IPC: 0.39140 cumulative IPC: 0.39901 (Simulation time: 0 hr 6 min 47 sec) 
Heartbeat CPU  0 instructions:  250000000 cycles:  482923003 heartbeat IPC: 0.41614 cumulative IPC: 0.39912 (Simulation time: 0 hr 6 min 49 sec) 
Heartbeat CPU  0 instructions:  251000002 cycles:  485644893 heartbeat IPC: 0.36739 cumulative IPC: 0.39889 (Simulation time: 0 hr 6 min 51 sec) 
Heartbeat CPU  0 instructions:  252000000 cycles:  488357134 heartbeat IPC: 0.36870 cumulative IPC: 0.39867 (Simulation time: 0 hr 6 min 52 sec) 
Heartbeat CPU  0 instructions:  253000000 cycles:  491166490 heartbeat IPC: 0.35595 cumulative IPC: 0.39836 (Simulation time: 0 hr 6 min 54 sec) 
Heartbeat CPU  0 instructions:  254000002 cycles:  493891294 heartbeat IPC: 0.36700 cumulative IPC: 0.39814 (Simulation time: 0 hr 6 min 56 sec) 
Heartbeat CPU  0 instructions:  255000001 cycles:  496624177 heartbeat IPC: 0.36591 cumulative IPC: 0.39791 (Simulation time: 0 hr 6 min 58 sec) 
Heartbeat CPU  0 instructions:  256000000 cycles:  499359742 heartbeat IPC: 0.36555 cumulative IPC: 0.39769 (Simulation time: 0 hr 7 min 0 sec) 
Heartbeat CPU  0 instructions:  257000000 cycles:  502083087 heartbeat IPC: 0.36720 cumulative IPC: 0.39748 (Simulation time: 0 hr 7 min 2 sec) 
Heartbeat CPU  0 instructions:  258000000 cycles:  504797789 heartbeat IPC: 0.36836 cumulative IPC: 0.39728 (Simulation time: 0 hr 7 min 4 sec) 
Heartbeat CPU  0 instructions:  259000000 cycles:  507293415 heartbeat IPC: 0.40070 cumulative IPC: 0.39730 (Simulation time: 0 hr 7 min 6 sec) 
Heartbeat CPU  0 instructions:  260000000 cycles:  509973378 heartbeat IPC: 0.37314 cumulative IPC: 0.39714 (Simulation time: 0 hr 7 min 8 sec) 
Heartbeat CPU  0 instructions:  261000000 cycles:  512684025 heartbeat IPC: 0.36892 cumulative IPC: 0.39695 (Simulation time: 0 hr 7 min 10 sec) 
Heartbeat CPU  0 instructions:  262000000 cycles:  515415276 heartbeat IPC: 0.36613 cumulative IPC: 0.39674 (Simulation time: 0 hr 7 min 11 sec) 
Heartbeat CPU  0 instructions:  263000001 cycles:  518114119 heartbeat IPC: 0.37053 cumulative IPC: 0.39657 (Simulation time: 0 hr 7 min 13 sec) 
Heartbeat CPU  0 instructions:  264000000 cycles:  520747688 heartbeat IPC: 0.37971 cumulative IPC: 0.39647 (Simulation time: 0 hr 7 min 15 sec) 
Heartbeat CPU  0 instructions:  265000002 cycles:  523382309 heartbeat IPC: 0.37956 cumulative IPC: 0.39636 (Simulation time: 0 hr 7 min 17 sec) 
Heartbeat CPU  0 instructions:  266000002 cycles:  526033693 heartbeat IPC: 0.37716 cumulative IPC: 0.39624 (Simulation time: 0 hr 7 min 19 sec) 
Heartbeat CPU  0 instructions:  267000003 cycles:  528766811 heartbeat IPC: 0.36588 cumulative IPC: 0.39604 (Simulation time: 0 hr 7 min 21 sec) 
Heartbeat CPU  0 instructions:  268000000 cycles:  531512944 heartbeat IPC: 0.36415 cumulative IPC: 0.39583 (Simulation time: 0 hr 7 min 23 sec) 
Heartbeat CPU  0 instructions:  269000001 cycles:  534250927 heartbeat IPC: 0.36523 cumulative IPC: 0.39564 (Simulation time: 0 hr 7 min 25 sec) 
Heartbeat CPU  0 instructions:  270000001 cycles:  536956572 heartbeat IPC: 0.36960 cumulative IPC: 0.39547 (Simulation time: 0 hr 7 min 26 sec) 
Heartbeat CPU  0 instructions:  271000003 cycles:  539653150 heartbeat IPC: 0.37084 cumulative IPC: 0.39532 (Simulation time: 0 hr 7 min 28 sec) 
Heartbeat CPU  0 instructions:  272000000 cycles:  542380231 heartbeat IPC: 0.36669 cumulative IPC: 0.39514 (Simulation time: 0 hr 7 min 30 sec) 
Heartbeat CPU  0 instructions:  273000001 cycles:  545072713 heartbeat IPC: 0.37140 cumulative IPC: 0.39499 (Simulation time: 0 hr 7 min 32 sec) 
Heartbeat CPU  0 instructions:  274000003 cycles:  547854647 heartbeat IPC: 0.35946 cumulative IPC: 0.39477 (Simulation time: 0 hr 7 min 34 sec) 
Heartbeat CPU  0 instructions:  275000002 cycles:  550587793 heartbeat IPC: 0.36588 cumulative IPC: 0.39459 (Simulation time: 0 hr 7 min 36 sec) 
Heartbeat CPU  0 instructions:  276000000 cycles:  553249166 heartbeat IPC: 0.37575 cumulative IPC: 0.39448 (Simulation time: 0 hr 7 min 38 sec) 
Heartbeat CPU  0 instructions:  277000000 cycles:  555817595 heartbeat IPC: 0.38934 cumulative IPC: 0.39445 (Simulation time: 0 hr 7 min 39 sec) 
Heartbeat CPU  0 instructions:  278000001 cycles:  558307329 heartbeat IPC: 0.40165 cumulative IPC: 0.39449 (Simulation time: 0 hr 7 min 41 sec) 
Heartbeat CPU  0 instructions:  279000002 cycles:  560887176 heartbeat IPC: 0.38762 cumulative IPC: 0.39445 (Simulation time: 0 hr 7 min 43 sec) 
Heartbeat CPU  0 instructions:  280000000 cycles:  563594143 heartbeat IPC: 0.36942 cumulative IPC: 0.39430 (Simulation time: 0 hr 7 min 45 sec) 
Heartbeat CPU  0 instructions:  281000002 cycles:  566322525 heartbeat IPC: 0.36652 cumulative IPC: 0.39414 (Simulation time: 0 hr 7 min 47 sec) 
Heartbeat CPU  0 instructions:  282000003 cycles:  568961719 heartbeat IPC: 0.37890 cumulative IPC: 0.39405 (Simulation time: 0 hr 7 min 49 sec) 
Heartbeat CPU  0 instructions:  283000001 cycles:  571424269 heartbeat IPC: 0.40608 cumulative IPC: 0.39411 (Simulation time: 0 hr 7 min 51 sec) 
Heartbeat CPU  0 instructions:  284000000 cycles:  574035977 heartbeat IPC: 0.38289 cumulative IPC: 0.39405 (Simulation time: 0 hr 7 min 53 sec) 
Heartbeat CPU  0 instructions:  285000001 cycles:  576706656 heartbeat IPC: 0.37444 cumulative IPC: 0.39394 (Simulation time: 0 hr 7 min 55 sec) 
Heartbeat CPU  0 instructions:  286000000 cycles:  579195076 heartbeat IPC: 0.40186 cumulative IPC: 0.39398 (Simulation time: 0 hr 7 min 56 sec) 
Heartbeat CPU  0 instructions:  287000002 cycles:  581764461 heartbeat IPC: 0.38920 cumulative IPC: 0.39396 (Simulation time: 0 hr 7 min 58 sec) 
Heartbeat CPU  0 instructions:  288000000 cycles:  584476573 heartbeat IPC: 0.36872 cumulative IPC: 0.39381 (Simulation time: 0 hr 8 min 0 sec) 
Heartbeat CPU  0 instructions:  289000000 cycles:  587233268 heartbeat IPC: 0.36275 cumulative IPC: 0.39363 (Simulation time: 0 hr 8 min 2 sec) 
Heartbeat CPU  0 instructions:  290000002 cycles:  589827432 heartbeat IPC: 0.38548 cumulative IPC: 0.39359 (Simulation time: 0 hr 8 min 4 sec) 
Heartbeat CPU  0 instructions:  291000000 cycles:  592679322 heartbeat IPC: 0.35064 cumulative IPC: 0.39334 (Simulation time: 0 hr 8 min 6 sec) 
Heartbeat CPU  0 instructions:  292000000 cycles:  595486913 heartbeat IPC: 0.35618 cumulative IPC: 0.39312 (Simulation time: 0 hr 8 min 8 sec) 
Heartbeat CPU  0 instructions:  293000000 cycles:  598261596 heartbeat IPC: 0.36040 cumulative IPC: 0.39294 (Simulation time: 0 hr 8 min 10 sec) 
Heartbeat CPU  0 instructions:  294000002 cycles:  601004579 heartbeat IPC: 0.36457 cumulative IPC: 0.39278 (Simulation time: 0 hr 8 min 11 sec) 
Heartbeat CPU  0 instructions:  295000001 cycles:  603698198 heartbeat IPC: 0.37125 cumulative IPC: 0.39267 (Simulation time: 0 hr 8 min 13 sec) 
Heartbeat CPU  0 instructions:  296000000 cycles:  606450740 heartbeat IPC: 0.36330 cumulative IPC: 0.39250 (Simulation time: 0 hr 8 min 15 sec) 
Heartbeat CPU  0 instructions:  297000000 cycles:  609159441 heartbeat IPC: 0.36918 cumulative IPC: 0.39238 (Simulation time: 0 hr 8 min 17 sec) 
Heartbeat CPU  0 instructions:  298000000 cycles:  611826533 heartbeat IPC: 0.37494 cumulative IPC: 0.39229 (Simulation time: 0 hr 8 min 19 sec) 
Heartbeat CPU  0 instructions:  299000000 cycles:  614604799 heartbeat IPC: 0.35994 cumulative IPC: 0.39211 (Simulation time: 0 hr 8 min 21 sec) 
Heartbeat CPU  0 instructions:  300000000 cycles:  617300458 heartbeat IPC: 0.37097 cumulative IPC: 0.39200 (Simulation time: 0 hr 8 min 23 sec) 
Heartbeat CPU  0 instructions:  301000000 cycles:  620070046 heartbeat IPC: 0.36106 cumulative IPC: 0.39183 (Simulation time: 0 hr 8 min 25 sec) 
Heartbeat CPU  0 instructions:  302000000 cycles:  622819879 heartbeat IPC: 0.36366 cumulative IPC: 0.39168 (Simulation time: 0 hr 8 min 27 sec) 
Heartbeat CPU  0 instructions:  303000000 cycles:  625701421 heartbeat IPC: 0.34704 cumulative IPC: 0.39143 (Simulation time: 0 hr 8 min 29 sec) 
Heartbeat CPU  0 instructions:  304000000 cycles:  628422472 heartbeat IPC: 0.36751 cumulative IPC: 0.39131 (Simulation time: 0 hr 8 min 30 sec) 
Heartbeat CPU  0 instructions:  305000002 cycles:  631055925 heartbeat IPC: 0.37973 cumulative IPC: 0.39125 (Simulation time: 0 hr 8 min 32 sec) 
Heartbeat CPU  0 instructions:  306000000 cycles:  633943251 heartbeat IPC: 0.34634 cumulative IPC: 0.39100 (Simulation time: 0 hr 8 min 34 sec) 
Heartbeat CPU  0 instructions:  307000000 cycles:  636662524 heartbeat IPC: 0.36775 cumulative IPC: 0.39088 (Simulation time: 0 hr 8 min 36 sec) 
Heartbeat CPU  0 instructions:  308000000 cycles:  639382042 heartbeat IPC: 0.36771 cumulative IPC: 0.39076 (Simulation time: 0 hr 8 min 38 sec) 
Heartbeat CPU  0 instructions:  309000000 cycles:  642057560 heartbeat IPC: 0.37376 cumulative IPC: 0.39068 (Simulation time: 0 hr 8 min 40 sec) 
Heartbeat CPU  0 instructions:  310000000 cycles:  644482272 heartbeat IPC: 0.41242 cumulative IPC: 0.39078 (Simulation time: 0 hr 8 min 42 sec) 
Heartbeat CPU  0 instructions:  311000000 cycles:  646368789 heartbeat IPC: 0.53008 cumulative IPC: 0.39126 (Simulation time: 0 hr 8 min 43 sec) 
Heartbeat CPU  0 instructions:  312000000 cycles:  649001001 heartbeat IPC: 0.37991 cumulative IPC: 0.39121 (Simulation time: 0 hr 8 min 45 sec) 
Heartbeat CPU  0 instructions:  313000002 cycles:  651749130 heartbeat IPC: 0.36388 cumulative IPC: 0.39107 (Simulation time: 0 hr 8 min 47 sec) 
Heartbeat CPU  0 instructions:  314000002 cycles:  654485591 heartbeat IPC: 0.36544 cumulative IPC: 0.39094 (Simulation time: 0 hr 8 min 49 sec) 
Heartbeat CPU  0 instructions:  315000001 cycles:  657251247 heartbeat IPC: 0.36158 cumulative IPC: 0.39080 (Simulation time: 0 hr 8 min 51 sec) 
Heartbeat CPU  0 instructions:  316000000 cycles:  660057688 heartbeat IPC: 0.35632 cumulative IPC: 0.39062 (Simulation time: 0 hr 8 min 53 sec) 
Heartbeat CPU  0 instructions:  317000003 cycles:  662808319 heartbeat IPC: 0.36355 cumulative IPC: 0.39049 (Simulation time: 0 hr 8 min 55 sec) 
Heartbeat CPU  0 instructions:  318000000 cycles:  665516663 heartbeat IPC: 0.36923 cumulative IPC: 0.39038 (Simulation time: 0 hr 8 min 56 sec) 
Heartbeat CPU  0 instructions:  319000000 cycles:  668153873 heartbeat IPC: 0.37919 cumulative IPC: 0.39033 (Simulation time: 0 hr 8 min 58 sec) 
Heartbeat CPU  0 instructions:  320000000 cycles:  670818069 heartbeat IPC: 0.37535 cumulative IPC: 0.39026 (Simulation time: 0 hr 9 min 0 sec) 
Heartbeat CPU  0 instructions:  321000003 cycles:  673545336 heartbeat IPC: 0.36667 cumulative IPC: 0.39015 (Simulation time: 0 hr 9 min 2 sec) 
Heartbeat CPU  0 instructions:  322000002 cycles:  676157450 heartbeat IPC: 0.38283 cumulative IPC: 0.39011 (Simulation time: 0 hr 9 min 4 sec) 
Heartbeat CPU  0 instructions:  323000000 cycles:  678782505 heartbeat IPC: 0.38094 cumulative IPC: 0.39007 (Simulation time: 0 hr 9 min 6 sec) 
Heartbeat CPU  0 instructions:  324000000 cycles:  680859687 heartbeat IPC: 0.48142 cumulative IPC: 0.39040 (Simulation time: 0 hr 9 min 7 sec) 
Heartbeat CPU  0 instructions:  325000001 cycles:  683269786 heartbeat IPC: 0.41492 cumulative IPC: 0.39050 (Simulation time: 0 hr 9 min 9 sec) 
Heartbeat CPU  0 instructions:  326000000 cycles:  685735288 heartbeat IPC: 0.40560 cumulative IPC: 0.39057 (Simulation time: 0 hr 9 min 11 sec) 
Heartbeat CPU  0 instructions:  327000000 cycles:  688160233 heartbeat IPC: 0.41238 cumulative IPC: 0.39066 (Simulation time: 0 hr 9 min 13 sec) 
Heartbeat CPU  0 instructions:  328000000 cycles:  690835621 heartbeat IPC: 0.37378 cumulative IPC: 0.39058 (Simulation time: 0 hr 9 min 15 sec) 
Heartbeat CPU  0 instructions:  329000003 cycles:  693334885 heartbeat IPC: 0.40012 cumulative IPC: 0.39062 (Simulation time: 0 hr 9 min 17 sec) 
Heartbeat CPU  0 instructions:  330000001 cycles:  695680420 heartbeat IPC: 0.42634 cumulative IPC: 0.39077 (Simulation time: 0 hr 9 min 18 sec) 
Heartbeat CPU  0 instructions:  331000001 cycles:  698051982 heartbeat IPC: 0.42166 cumulative IPC: 0.39089 (Simulation time: 0 hr 9 min 20 sec) 
Heartbeat CPU  0 instructions:  332000000 cycles:  700645044 heartbeat IPC: 0.38564 cumulative IPC: 0.39087 (Simulation time: 0 hr 9 min 22 sec) 
Heartbeat CPU  0 instructions:  333000000 cycles:  703228580 heartbeat IPC: 0.38707 cumulative IPC: 0.39085 (Simulation time: 0 hr 9 min 24 sec) 
Heartbeat CPU  0 instructions:  334000001 cycles:  705775325 heartbeat IPC: 0.39266 cumulative IPC: 0.39086 (Simulation time: 0 hr 9 min 26 sec) 
Heartbeat CPU  0 instructions:  335000000 cycles:  708384151 heartbeat IPC: 0.38331 cumulative IPC: 0.39083 (Simulation time: 0 hr 9 min 28 sec) 
Heartbeat CPU  0 instructions:  336000000 cycles:  710785214 heartbeat IPC: 0.41648 cumulative IPC: 0.39093 (Simulation time: 0 hr 9 min 30 sec) 
Heartbeat CPU  0 instructions:  337000000 cycles:  713176472 heartbeat IPC: 0.41819 cumulative IPC: 0.39103 (Simulation time: 0 hr 9 min 31 sec) 
Heartbeat CPU  0 instructions:  338000001 cycles:  715654683 heartbeat IPC: 0.40352 cumulative IPC: 0.39109 (Simulation time: 0 hr 9 min 33 sec) 
Heartbeat CPU  0 instructions:  339000000 cycles:  718121538 heartbeat IPC: 0.40537 cumulative IPC: 0.39114 (Simulation time: 0 hr 9 min 35 sec) 
Heartbeat CPU  0 instructions:  340000000 cycles:  720749281 heartbeat IPC: 0.38055 cumulative IPC: 0.39110 (Simulation time: 0 hr 9 min 37 sec) 
Heartbeat CPU  0 instructions:  341000002 cycles:  723358907 heartbeat IPC: 0.38320 cumulative IPC: 0.39106 (Simulation time: 0 hr 9 min 39 sec) 
Heartbeat CPU  0 instructions:  342000001 cycles:  726126366 heartbeat IPC: 0.36134 cumulative IPC: 0.39093 (Simulation time: 0 hr 9 min 41 sec) 
Heartbeat CPU  0 instructions:  343000003 cycles:  728720645 heartbeat IPC: 0.38546 cumulative IPC: 0.39091 (Simulation time: 0 hr 9 min 43 sec) 
Heartbeat CPU  0 instructions:  344000000 cycles:  731251274 heartbeat IPC: 0.39516 cumulative IPC: 0.39093 (Simulation time: 0 hr 9 min 44 sec) 
Heartbeat CPU  0 instructions:  345000003 cycles:  734049176 heartbeat IPC: 0.35741 cumulative IPC: 0.39078 (Simulation time: 0 hr 9 min 46 sec) 
Heartbeat CPU  0 instructions:  346000001 cycles:  736776401 heartbeat IPC: 0.36667 cumulative IPC: 0.39067 (Simulation time: 0 hr 9 min 48 sec) 
Heartbeat CPU  0 instructions:  347000002 cycles:  739271648 heartbeat IPC: 0.40076 cumulative IPC: 0.39071 (Simulation time: 0 hr 9 min 50 sec) 
Heartbeat CPU  0 instructions:  348000000 cycles:  741639606 heartbeat IPC: 0.42230 cumulative IPC: 0.39083 (Simulation time: 0 hr 9 min 52 sec) 
Heartbeat CPU  0 instructions:  349000000 cycles:  744279852 heartbeat IPC: 0.37875 cumulative IPC: 0.39078 (Simulation time: 0 hr 9 min 54 sec) 
Heartbeat CPU  0 instructions:  350000001 cycles:  746802885 heartbeat IPC: 0.39635 cumulative IPC: 0.39080 (Simulation time: 0 hr 9 min 56 sec) 
Heartbeat CPU  0 instructions:  351000000 cycles:  749606564 heartbeat IPC: 0.35667 cumulative IPC: 0.39065 (Simulation time: 0 hr 9 min 58 sec) 
Heartbeat CPU  0 instructions:  352000000 cycles:  752287594 heartbeat IPC: 0.37299 cumulative IPC: 0.39058 (Simulation time: 0 hr 9 min 59 sec) 
Heartbeat CPU  0 instructions:  353000002 cycles:  754859484 heartbeat IPC: 0.38882 cumulative IPC: 0.39057 (Simulation time: 0 hr 10 min 1 sec) 
Heartbeat CPU  0 instructions:  354000000 cycles:  757477439 heartbeat IPC: 0.38198 cumulative IPC: 0.39054 (Simulation time: 0 hr 10 min 3 sec) 
Heartbeat CPU  0 instructions:  355000003 cycles:  760223364 heartbeat IPC: 0.36418 cumulative IPC: 0.39043 (Simulation time: 0 hr 10 min 5 sec) 
Heartbeat CPU  0 instructions:  356000000 cycles:  762960756 heartbeat IPC: 0.36531 cumulative IPC: 0.39032 (Simulation time: 0 hr 10 min 7 sec) 
Heartbeat CPU  0 instructions:  357000000 cycles:  765640547 heartbeat IPC: 0.37316 cumulative IPC: 0.39025 (Simulation time: 0 hr 10 min 9 sec) 
Heartbeat CPU  0 instructions:  358000000 cycles:  768349046 heartbeat IPC: 0.36921 cumulative IPC: 0.39017 (Simulation time: 0 hr 10 min 11 sec) 
Heartbeat CPU  0 instructions:  359000000 cycles:  771039353 heartbeat IPC: 0.37170 cumulative IPC: 0.39009 (Simulation time: 0 hr 10 min 13 sec) 
Heartbeat CPU  0 instructions:  360000000 cycles:  773721774 heartbeat IPC: 0.37280 cumulative IPC: 0.39002 (Simulation time: 0 hr 10 min 14 sec) 
Heartbeat CPU  0 instructions:  361000000 cycles:  776253577 heartbeat IPC: 0.39498 cumulative IPC: 0.39004 (Simulation time: 0 hr 10 min 16 sec) 
Heartbeat CPU  0 instructions:  362000000 cycles:  779155123 heartbeat IPC: 0.34464 cumulative IPC: 0.38984 (Simulation time: 0 hr 10 min 18 sec) 
Heartbeat CPU  0 instructions:  363000000 cycles:  781940691 heartbeat IPC: 0.35899 cumulative IPC: 0.38972 (Simulation time: 0 hr 10 min 20 sec) 
Heartbeat CPU  0 instructions:  364000000 cycles:  784321337 heartbeat IPC: 0.42005 cumulative IPC: 0.38982 (Simulation time: 0 hr 10 min 22 sec) 
Heartbeat CPU  0 instructions:  365000000 cycles:  786722724 heartbeat IPC: 0.41643 cumulative IPC: 0.38992 (Simulation time: 0 hr 10 min 24 sec) 
Heartbeat CPU  0 instructions:  366000002 cycles:  788565682 heartbeat IPC: 0.54261 cumulative IPC: 0.39033 (Simulation time: 0 hr 10 min 25 sec) 
Heartbeat CPU  0 instructions:  367000000 cycles:  790313185 heartbeat IPC: 0.57224 cumulative IPC: 0.39080 (Simulation time: 0 hr 10 min 27 sec) 
Heartbeat CPU  0 instructions:  368000000 cycles:  792997233 heartbeat IPC: 0.37257 cumulative IPC: 0.39072 (Simulation time: 0 hr 10 min 29 sec) 
Heartbeat CPU  0 instructions:  369000000 cycles:  795773497 heartbeat IPC: 0.36020 cumulative IPC: 0.39060 (Simulation time: 0 hr 10 min 31 sec) 
Heartbeat CPU  0 instructions:  370000000 cycles:  798611440 heartbeat IPC: 0.35237 cumulative IPC: 0.39044 (Simulation time: 0 hr 10 min 32 sec) 
Heartbeat CPU  0 instructions:  371000003 cycles:  801277046 heartbeat IPC: 0.37515 cumulative IPC: 0.39039 (Simulation time: 0 hr 10 min 34 sec) 
Heartbeat CPU  0 instructions:  372000000 cycles:  803937992 heartbeat IPC: 0.37581 cumulative IPC: 0.39033 (Simulation time: 0 hr 10 min 36 sec) 
Heartbeat CPU  0 instructions:  373000002 cycles:  806598948 heartbeat IPC: 0.37581 cumulative IPC: 0.39028 (Simulation time: 0 hr 10 min 38 sec) 
Heartbeat CPU  0 instructions:  374000001 cycles:  809394564 heartbeat IPC: 0.35770 cumulative IPC: 0.39015 (Simulation time: 0 hr 10 min 40 sec) 
Heartbeat CPU  0 instructions:  375000000 cycles:  812170135 heartbeat IPC: 0.36029 cumulative IPC: 0.39003 (Simulation time: 0 hr 10 min 42 sec) 
Heartbeat CPU  0 instructions:  376000000 cycles:  814948388 heartbeat IPC: 0.35994 cumulative IPC: 0.38991 (Simulation time: 0 hr 10 min 44 sec) 
Heartbeat CPU  0 instructions:  377000002 cycles:  817721054 heartbeat IPC: 0.36066 cumulative IPC: 0.38980 (Simulation time: 0 hr 10 min 46 sec) 
Heartbeat CPU  0 instructions:  378000001 cycles:  820483917 heartbeat IPC: 0.36194 cumulative IPC: 0.38969 (Simulation time: 0 hr 10 min 48 sec) 
Heartbeat CPU  0 instructions:  379000000 cycles:  823339443 heartbeat IPC: 0.35020 cumulative IPC: 0.38953 (Simulation time: 0 hr 10 min 49 sec) 
Heartbeat CPU  0 instructions:  380000000 cycles:  826164941 heartbeat IPC: 0.35392 cumulative IPC: 0.38939 (Simulation time: 0 hr 10 min 51 sec) 
Heartbeat CPU  0 instructions:  381000002 cycles:  829007957 heartbeat IPC: 0.35174 cumulative IPC: 0.38924 (Simulation time: 0 hr 10 min 53 sec) 
Heartbeat CPU  0 instructions:  382000000 cycles:  831723545 heartbeat IPC: 0.36824 cumulative IPC: 0.38916 (Simulation time: 0 hr 10 min 55 sec) 
Heartbeat CPU  0 instructions:  383000001 cycles:  834440685 heartbeat IPC: 0.36803 cumulative IPC: 0.38908 (Simulation time: 0 hr 10 min 57 sec) 
Heartbeat CPU  0 instructions:  384000000 cycles:  837244149 heartbeat IPC: 0.35670 cumulative IPC: 0.38896 (Simulation time: 0 hr 10 min 59 sec) 
Heartbeat CPU  0 instructions:  385000002 cycles:  839969190 heartbeat IPC: 0.36697 cumulative IPC: 0.38888 (Simulation time: 0 hr 11 min 1 sec) 
Heartbeat CPU  0 instructions:  386000000 cycles:  842545899 heartbeat IPC: 0.38809 cumulative IPC: 0.38888 (Simulation time: 0 hr 11 min 3 sec) 
Heartbeat CPU  0 instructions:  387000000 cycles:  845159731 heartbeat IPC: 0.38258 cumulative IPC: 0.38885 (Simulation time: 0 hr 11 min 4 sec) 
Heartbeat CPU  0 instructions:  388000000 cycles:  847972163 heartbeat IPC: 0.35556 cumulative IPC: 0.38873 (Simulation time: 0 hr 11 min 6 sec) 
Heartbeat CPU  0 instructions:  389000000 cycles:  850644080 heartbeat IPC: 0.37426 cumulative IPC: 0.38867 (Simulation time: 0 hr 11 min 8 sec) 
Heartbeat CPU  0 instructions:  390000001 cycles:  853553549 heartbeat IPC: 0.34371 cumulative IPC: 0.38850 (Simulation time: 0 hr 11 min 10 sec) 
Heartbeat CPU  0 instructions:  391000001 cycles:  856297667 heartbeat IPC: 0.36442 cumulative IPC: 0.38841 (Simulation time: 0 hr 11 min 12 sec) 
Heartbeat CPU  0 instructions:  392000000 cycles:  858924050 heartbeat IPC: 0.38075 cumulative IPC: 0.38838 (Simulation time: 0 hr 11 min 14 sec) 
Heartbeat CPU  0 instructions:  393000001 cycles:  861718073 heartbeat IPC: 0.35791 cumulative IPC: 0.38827 (Simulation time: 0 hr 11 min 16 sec) 
Heartbeat CPU  0 instructions:  394000002 cycles:  864432268 heartbeat IPC: 0.36843 cumulative IPC: 0.38820 (Simulation time: 0 hr 11 min 17 sec) 
Heartbeat CPU  0 instructions:  395000000 cycles:  867027523 heartbeat IPC: 0.38532 cumulative IPC: 0.38819 (Simulation time: 0 hr 11 min 19 sec) 
Heartbeat CPU  0 instructions:  396000000 cycles:  869860532 heartbeat IPC: 0.35298 cumulative IPC: 0.38806 (Simulation time: 0 hr 11 min 21 sec) 
Heartbeat CPU  0 instructions:  397000000 cycles:  872634832 heartbeat IPC: 0.36045 cumulative IPC: 0.38796 (Simulation time: 0 hr 11 min 23 sec) 
Heartbeat CPU  0 instructions:  398000000 cycles:  875180606 heartbeat IPC: 0.39281 cumulative IPC: 0.38798 (Simulation time: 0 hr 11 min 25 sec) 
Heartbeat CPU  0 instructions:  399000000 cycles:  877981216 heartbeat IPC: 0.35707 cumulative IPC: 0.38786 (Simulation time: 0 hr 11 min 27 sec) 
Heartbeat CPU  0 instructions:  400000000 cycles:  880541879 heartbeat IPC: 0.39052 cumulative IPC: 0.38787 (Simulation time: 0 hr 11 min 29 sec) 
Heartbeat CPU  0 instructions:  401000003 cycles:  883269921 heartbeat IPC: 0.36656 cumulative IPC: 0.38780 (Simulation time: 0 hr 11 min 30 sec) 
Heartbeat CPU  0 instructions:  402000001 cycles:  885832703 heartbeat IPC: 0.39020 cumulative IPC: 0.38781 (Simulation time: 0 hr 11 min 32 sec) 
Heartbeat CPU  0 instructions:  403000001 cycles:  888330475 heartbeat IPC: 0.40036 cumulative IPC: 0.38785 (Simulation time: 0 hr 11 min 34 sec) 
Heartbeat CPU  0 instructions:  404000000 cycles:  891197914 heartbeat IPC: 0.34874 cumulative IPC: 0.38770 (Simulation time: 0 hr 11 min 36 sec) 
Heartbeat CPU  0 instructions:  405000001 cycles:  894040653 heartbeat IPC: 0.35177 cumulative IPC: 0.38757 (Simulation time: 0 hr 11 min 38 sec) 
Heartbeat CPU  0 instructions:  406000002 cycles:  896878025 heartbeat IPC: 0.35244 cumulative IPC: 0.38745 (Simulation time: 0 hr 11 min 40 sec) 
Heartbeat CPU  0 instructions:  407000000 cycles:  899543286 heartbeat IPC: 0.37520 cumulative IPC: 0.38741 (Simulation time: 0 hr 11 min 41 sec) 
Heartbeat CPU  0 instructions:  408000000 cycles:  902312992 heartbeat IPC: 0.36105 cumulative IPC: 0.38731 (Simulation time: 0 hr 11 min 43 sec) 
Heartbeat CPU  0 instructions:  409000003 cycles:  905053028 heartbeat IPC: 0.36496 cumulative IPC: 0.38724 (Simulation time: 0 hr 11 min 45 sec) 
Heartbeat CPU  0 instructions:  410000002 cycles:  907704358 heartbeat IPC: 0.37717 cumulative IPC: 0.38720 (Simulation time: 0 hr 11 min 47 sec) 
Heartbeat CPU  0 instructions:  411000000 cycles:  910480450 heartbeat IPC: 0.36022 cumulative IPC: 0.38711 (Simulation time: 0 hr 11 min 49 sec) 
Heartbeat CPU  0 instructions:  412000000 cycles:  913160381 heartbeat IPC: 0.37314 cumulative IPC: 0.38706 (Simulation time: 0 hr 11 min 51 sec) 
Heartbeat CPU  0 instructions:  413000001 cycles:  915975124 heartbeat IPC: 0.35527 cumulative IPC: 0.38695 (Simulation time: 0 hr 11 min 53 sec) 
Heartbeat CPU  0 instructions:  414000003 cycles:  918631259 heartbeat IPC: 0.37649 cumulative IPC: 0.38692 (Simulation time: 0 hr 11 min 54 sec) 
Heartbeat CPU  0 instructions:  415000002 cycles:  921310949 heartbeat IPC: 0.37318 cumulative IPC: 0.38687 (Simulation time: 0 hr 11 min 56 sec) 
Heartbeat CPU  0 instructions:  416000000 cycles:  924004237 heartbeat IPC: 0.37129 cumulative IPC: 0.38682 (Simulation time: 0 hr 11 min 58 sec) 
Heartbeat CPU  0 instructions:  417000003 cycles:  926759202 heartbeat IPC: 0.36298 cumulative IPC: 0.38674 (Simulation time: 0 hr 12 min 0 sec) 
Heartbeat CPU  0 instructions:  418000001 cycles:  929529665 heartbeat IPC: 0.36095 cumulative IPC: 0.38666 (Simulation time: 0 hr 12 min 2 sec) 
Heartbeat CPU  0 instructions:  419000000 cycles:  932351691 heartbeat IPC: 0.35435 cumulative IPC: 0.38655 (Simulation time: 0 hr 12 min 4 sec) 
Heartbeat CPU  0 instructions:  420000000 cycles:  935100710 heartbeat IPC: 0.36377 cumulative IPC: 0.38647 (Simulation time: 0 hr 12 min 6 sec) 
Heartbeat CPU  0 instructions:  421000000 cycles:  937638010 heartbeat IPC: 0.39412 cumulative IPC: 0.38649 (Simulation time: 0 hr 12 min 7 sec) 
Heartbeat CPU  0 instructions:  422000001 cycles:  940467843 heartbeat IPC: 0.35338 cumulative IPC: 0.38638 (Simulation time: 0 hr 12 min 9 sec) 
Heartbeat CPU  0 instructions:  423000003 cycles:  943178377 heartbeat IPC: 0.36893 cumulative IPC: 0.38632 (Simulation time: 0 hr 12 min 11 sec) 
Heartbeat CPU  0 instructions:  424000000 cycles:  945772769 heartbeat IPC: 0.38545 cumulative IPC: 0.38632 (Simulation time: 0 hr 12 min 13 sec) 
Heartbeat CPU  0 instructions:  425000001 cycles:  948503578 heartbeat IPC: 0.36619 cumulative IPC: 0.38626 (Simulation time: 0 hr 12 min 15 sec) 
Heartbeat CPU  0 instructions:  426000003 cycles:  951013087 heartbeat IPC: 0.39849 cumulative IPC: 0.38629 (Simulation time: 0 hr 12 min 17 sec) 
Heartbeat CPU  0 instructions:  427000002 cycles:  953614724 heartbeat IPC: 0.38437 cumulative IPC: 0.38629 (Simulation time: 0 hr 12 min 18 sec) 
Heartbeat CPU  0 instructions:  428000000 cycles:  956199175 heartbeat IPC: 0.38693 cumulative IPC: 0.38629 (Simulation time: 0 hr 12 min 20 sec) 
Heartbeat CPU  0 instructions:  429000003 cycles:  958765637 heartbeat IPC: 0.38964 cumulative IPC: 0.38630 (Simulation time: 0 hr 12 min 22 sec) 
Heartbeat CPU  0 instructions:  430000002 cycles:  961526184 heartbeat IPC: 0.36225 cumulative IPC: 0.38622 (Simulation time: 0 hr 12 min 24 sec) 
Heartbeat CPU  0 instructions:  431000001 cycles:  964054632 heartbeat IPC: 0.39550 cumulative IPC: 0.38625 (Simulation time: 0 hr 12 min 26 sec) 
Heartbeat CPU  0 instructions:  432000000 cycles:  966760998 heartbeat IPC: 0.36950 cumulative IPC: 0.38620 (Simulation time: 0 hr 12 min 27 sec) 
Heartbeat CPU  0 instructions:  433000003 cycles:  969455651 heartbeat IPC: 0.37111 cumulative IPC: 0.38615 (Simulation time: 0 hr 12 min 29 sec) 
Heartbeat CPU  0 instructions:  434000000 cycles:  972028128 heartbeat IPC: 0.38873 cumulative IPC: 0.38616 (Simulation time: 0 hr 12 min 31 sec) 
Heartbeat CPU  0 instructions:  435000000 cycles:  974826963 heartbeat IPC: 0.35729 cumulative IPC: 0.38606 (Simulation time: 0 hr 12 min 33 sec) 
Heartbeat CPU  0 instructions:  436000000 cycles:  977164978 heartbeat IPC: 0.42771 cumulative IPC: 0.38617 (Simulation time: 0 hr 12 min 35 sec) 
Heartbeat CPU  0 instructions:  437000003 cycles:  979751479 heartbeat IPC: 0.38662 cumulative IPC: 0.38618 (Simulation time: 0 hr 12 min 36 sec) 
Heartbeat CPU  0 instructions:  438000001 cycles:  982619274 heartbeat IPC: 0.34870 cumulative IPC: 0.38605 (Simulation time: 0 hr 12 min 38 sec) 
Heartbeat CPU  0 instructions:  439000000 cycles:  985489712 heartbeat IPC: 0.34838 cumulative IPC: 0.38593 (Simulation time: 0 hr 12 min 40 sec) 
Heartbeat CPU  0 instructions:  440000000 cycles:  988259704 heartbeat IPC: 0.36101 cumulative IPC: 0.38585 (Simulation time: 0 hr 12 min 42 sec) 
Heartbeat CPU  0 instructions:  441000003 cycles:  991043501 heartbeat IPC: 0.35922 cumulative IPC: 0.38577 (Simulation time: 0 hr 12 min 44 sec) 
Heartbeat CPU  0 instructions:  442000002 cycles:  993809078 heartbeat IPC: 0.36159 cumulative IPC: 0.38569 (Simulation time: 0 hr 12 min 46 sec) 
Heartbeat CPU  0 instructions:  443000001 cycles:  996643925 heartbeat IPC: 0.35275 cumulative IPC: 0.38559 (Simulation time: 0 hr 12 min 48 sec) 
Heartbeat CPU  0 instructions:  444000000 cycles:  999423045 heartbeat IPC: 0.35983 cumulative IPC: 0.38551 (Simulation time: 0 hr 12 min 50 sec) 
Heartbeat CPU  0 instructions:  445000000 cycles: 1002287396 heartbeat IPC: 0.34912 cumulative IPC: 0.38539 (Simulation time: 0 hr 12 min 52 sec) 
Heartbeat CPU  0 instructions:  446000000 cycles: 1005133119 heartbeat IPC: 0.35140 cumulative IPC: 0.38528 (Simulation time: 0 hr 12 min 53 sec) 
Heartbeat CPU  0 instructions:  447000000 cycles: 1007928230 heartbeat IPC: 0.35777 cumulative IPC: 0.38520 (Simulation time: 0 hr 12 min 55 sec) 
Heartbeat CPU  0 instructions:  448000000 cycles: 1010457034 heartbeat IPC: 0.39544 cumulative IPC: 0.38523 (Simulation time: 0 hr 12 min 57 sec) 
Heartbeat CPU  0 instructions:  449000001 cycles: 1013320487 heartbeat IPC: 0.34923 cumulative IPC: 0.38511 (Simulation time: 0 hr 12 min 59 sec) 
Heartbeat CPU  0 instructions:  450000002 cycles: 1016089513 heartbeat IPC: 0.36114 cumulative IPC: 0.38504 (Simulation time: 0 hr 13 min 1 sec) 
Heartbeat CPU  0 instructions:  451000001 cycles: 1018778286 heartbeat IPC: 0.37192 cumulative IPC: 0.38500 (Simulation time: 0 hr 13 min 3 sec) 
Heartbeat CPU  0 instructions:  452000000 cycles: 1021603711 heartbeat IPC: 0.35393 cumulative IPC: 0.38490 (Simulation time: 0 hr 13 min 5 sec) 
Heartbeat CPU  0 instructions:  453000001 cycles: 1024402005 heartbeat IPC: 0.35736 cumulative IPC: 0.38482 (Simulation time: 0 hr 13 min 7 sec) 
Heartbeat CPU  0 instructions:  454000003 cycles: 1027260812 heartbeat IPC: 0.34980 cumulative IPC: 0.38471 (Simulation time: 0 hr 13 min 9 sec) 
Heartbeat CPU  0 instructions:  455000000 cycles: 1029975644 heartbeat IPC: 0.36835 cumulative IPC: 0.38466 (Simulation time: 0 hr 13 min 10 sec) 
Heartbeat CPU  0 instructions:  456000000 cycles: 1032799075 heartbeat IPC: 0.35418 cumulative IPC: 0.38457 (Simulation time: 0 hr 13 min 12 sec) 
Heartbeat CPU  0 instructions:  457000000 cycles: 1035527120 heartbeat IPC: 0.36656 cumulative IPC: 0.38452 (Simulation time: 0 hr 13 min 14 sec) 
Heartbeat CPU  0 instructions:  458000003 cycles: 1038319968 heartbeat IPC: 0.35806 cumulative IPC: 0.38444 (Simulation time: 0 hr 13 min 16 sec) 
Heartbeat CPU  0 instructions:  459000001 cycles: 1041059217 heartbeat IPC: 0.36506 cumulative IPC: 0.38438 (Simulation time: 0 hr 13 min 18 sec) 
Heartbeat CPU  0 instructions:  460000000 cycles: 1043784197 heartbeat IPC: 0.36697 cumulative IPC: 0.38433 (Simulation time: 0 hr 13 min 20 sec) 
Heartbeat CPU  0 instructions:  461000002 cycles: 1046557076 heartbeat IPC: 0.36064 cumulative IPC: 0.38426 (Simulation time: 0 hr 13 min 22 sec) 
Heartbeat CPU  0 instructions:  462000001 cycles: 1049280226 heartbeat IPC: 0.36722 cumulative IPC: 0.38421 (Simulation time: 0 hr 13 min 24 sec) 
Heartbeat CPU  0 instructions:  463000001 cycles: 1052115780 heartbeat IPC: 0.35266 cumulative IPC: 0.38412 (Simulation time: 0 hr 13 min 25 sec) 
Heartbeat CPU  0 instructions:  464000000 cycles: 1054921390 heartbeat IPC: 0.35643 cumulative IPC: 0.38404 (Simulation time: 0 hr 13 min 27 sec) 
Heartbeat CPU  0 instructions:  465000001 cycles: 1057545015 heartbeat IPC: 0.38115 cumulative IPC: 0.38403 (Simulation time: 0 hr 13 min 29 sec) 
Heartbeat CPU  0 instructions:  466000000 cycles: 1060270613 heartbeat IPC: 0.36689 cumulative IPC: 0.38398 (Simulation time: 0 hr 13 min 31 sec) 
Heartbeat CPU  0 instructions:  467000003 cycles: 1062980882 heartbeat IPC: 0.36897 cumulative IPC: 0.38394 (Simulation time: 0 hr 13 min 33 sec) 
Heartbeat CPU  0 instructions:  468000000 cycles: 1065622133 heartbeat IPC: 0.37861 cumulative IPC: 0.38392 (Simulation time: 0 hr 13 min 35 sec) 
Heartbeat CPU  0 instructions:  469000002 cycles: 1068202680 heartbeat IPC: 0.38752 cumulative IPC: 0.38393 (Simulation time: 0 hr 13 min 36 sec) 
Heartbeat CPU  0 instructions:  470000000 cycles: 1070911534 heartbeat IPC: 0.36916 cumulative IPC: 0.38389 (Simulation time: 0 hr 13 min 38 sec) 
Heartbeat CPU  0 instructions:  471000000 cycles: 1073504532 heartbeat IPC: 0.38565 cumulative IPC: 0.38389 (Simulation time: 0 hr 13 min 40 sec) 
Heartbeat CPU  0 instructions:  472000000 cycles: 1076171559 heartbeat IPC: 0.37495 cumulative IPC: 0.38387 (Simulation time: 0 hr 13 min 42 sec) 
Heartbeat CPU  0 instructions:  473000001 cycles: 1079104313 heartbeat IPC: 0.34098 cumulative IPC: 0.38374 (Simulation time: 0 hr 13 min 44 sec) 
Heartbeat CPU  0 instructions:  474000000 cycles: 1081723097 heartbeat IPC: 0.38186 cumulative IPC: 0.38374 (Simulation time: 0 hr 13 min 46 sec) 
Heartbeat CPU  0 instructions:  475000000 cycles: 1084543351 heartbeat IPC: 0.35458 cumulative IPC: 0.38365 (Simulation time: 0 hr 13 min 48 sec) 
Heartbeat CPU  0 instructions:  476000000 cycles: 1087361960 heartbeat IPC: 0.35478 cumulative IPC: 0.38357 (Simulation time: 0 hr 13 min 49 sec) 
Heartbeat CPU  0 instructions:  477000003 cycles: 1090095102 heartbeat IPC: 0.36588 cumulative IPC: 0.38352 (Simulation time: 0 hr 13 min 51 sec) 
Heartbeat CPU  0 instructions:  478000001 cycles: 1092759543 heartbeat IPC: 0.37531 cumulative IPC: 0.38350 (Simulation time: 0 hr 13 min 53 sec) 
Heartbeat CPU  0 instructions:  479000001 cycles: 1095370584 heartbeat IPC: 0.38299 cumulative IPC: 0.38350 (Simulation time: 0 hr 13 min 55 sec) 
Heartbeat CPU  0 instructions:  480000000 cycles: 1098227635 heartbeat IPC: 0.35001 cumulative IPC: 0.38340 (Simulation time: 0 hr 13 min 57 sec) 
Heartbeat CPU  0 instructions:  481000000 cycles: 1100905956 heartbeat IPC: 0.37337 cumulative IPC: 0.38337 (Simulation time: 0 hr 13 min 59 sec) 
Heartbeat CPU  0 instructions:  482000000 cycles: 1103540587 heartbeat IPC: 0.37956 cumulative IPC: 0.38336 (Simulation time: 0 hr 14 min 0 sec) 
Heartbeat CPU  0 instructions:  483000000 cycles: 1106104440 heartbeat IPC: 0.39004 cumulative IPC: 0.38338 (Simulation time: 0 hr 14 min 2 sec) 
Heartbeat CPU  0 instructions:  484000000 cycles: 1108802979 heartbeat IPC: 0.37057 cumulative IPC: 0.38334 (Simulation time: 0 hr 14 min 4 sec) 
Heartbeat CPU  0 instructions:  485000000 cycles: 1111465084 heartbeat IPC: 0.37564 cumulative IPC: 0.38332 (Simulation time: 0 hr 14 min 6 sec) 
Heartbeat CPU  0 instructions:  486000000 cycles: 1114077950 heartbeat IPC: 0.38272 cumulative IPC: 0.38332 (Simulation time: 0 hr 14 min 8 sec) 
Heartbeat CPU  0 instructions:  487000003 cycles: 1116883951 heartbeat IPC: 0.35638 cumulative IPC: 0.38325 (Simulation time: 0 hr 14 min 10 sec) 
Heartbeat CPU  0 instructions:  488000000 cycles: 1119690637 heartbeat IPC: 0.35629 cumulative IPC: 0.38317 (Simulation time: 0 hr 14 min 11 sec) 
Heartbeat CPU  0 instructions:  489000000 cycles: 1122406448 heartbeat IPC: 0.36821 cumulative IPC: 0.38313 (Simulation time: 0 hr 14 min 13 sec) 
Heartbeat CPU  0 instructions:  490000003 cycles: 1125171778 heartbeat IPC: 0.36162 cumulative IPC: 0.38307 (Simulation time: 0 hr 14 min 15 sec) 
Heartbeat CPU  0 instructions:  491000001 cycles: 1127897413 heartbeat IPC: 0.36689 cumulative IPC: 0.38303 (Simulation time: 0 hr 14 min 17 sec) 
Heartbeat CPU  0 instructions:  492000000 cycles: 1130680115 heartbeat IPC: 0.35936 cumulative IPC: 0.38297 (Simulation time: 0 hr 14 min 19 sec) 
Heartbeat CPU  0 instructions:  493000000 cycles: 1133368103 heartbeat IPC: 0.37203 cumulative IPC: 0.38294 (Simulation time: 0 hr 14 min 21 sec) 
Heartbeat CPU  0 instructions:  494000000 cycles: 1136002075 heartbeat IPC: 0.37965 cumulative IPC: 0.38293 (Simulation time: 0 hr 14 min 23 sec) 
Heartbeat CPU  0 instructions:  495000001 cycles: 1138847058 heartbeat IPC: 0.35150 cumulative IPC: 0.38284 (Simulation time: 0 hr 14 min 24 sec) 
Heartbeat CPU  0 instructions:  496000000 cycles: 1141608415 heartbeat IPC: 0.36214 cumulative IPC: 0.38279 (Simulation time: 0 hr 14 min 26 sec) 
Heartbeat CPU  0 instructions:  497000001 cycles: 1144387680 heartbeat IPC: 0.35981 cumulative IPC: 0.38273 (Simulation time: 0 hr 14 min 28 sec) 
Heartbeat CPU  0 instructions:  498000000 cycles: 1147162786 heartbeat IPC: 0.36035 cumulative IPC: 0.38267 (Simulation time: 0 hr 14 min 30 sec) 
Heartbeat CPU  0 instructions:  499000002 cycles: 1149906818 heartbeat IPC: 0.36443 cumulative IPC: 0.38262 (Simulation time: 0 hr 14 min 32 sec) 
Heartbeat CPU  0 instructions:  500000000 cycles: 1152592058 heartbeat IPC: 0.37241 cumulative IPC: 0.38259 (Simulation time: 0 hr 14 min 34 sec) 
Heartbeat CPU  0 instructions:  501000000 cycles: 1155312775 heartbeat IPC: 0.36755 cumulative IPC: 0.38255 (Simulation time: 0 hr 14 min 36 sec) 
Heartbeat CPU  0 instructions:  502000000 cycles: 1158101265 heartbeat IPC: 0.35862 cumulative IPC: 0.38249 (Simulation time: 0 hr 14 min 37 sec) 
Heartbeat CPU  0 instructions:  503000002 cycles: 1160924510 heartbeat IPC: 0.35420 cumulative IPC: 0.38241 (Simulation time: 0 hr 14 min 39 sec) 
Heartbeat CPU  0 instructions:  504000000 cycles: 1163763760 heartbeat IPC: 0.35220 cumulative IPC: 0.38233 (Simulation time: 0 hr 14 min 41 sec) 
Heartbeat CPU  0 instructions:  505000001 cycles: 1166383291 heartbeat IPC: 0.38175 cumulative IPC: 0.38233 (Simulation time: 0 hr 14 min 43 sec) 
Heartbeat CPU  0 instructions:  506000001 cycles: 1169210246 heartbeat IPC: 0.35374 cumulative IPC: 0.38226 (Simulation time: 0 hr 14 min 45 sec) 
Heartbeat CPU  0 instructions:  507000001 cycles: 1172044741 heartbeat IPC: 0.35280 cumulative IPC: 0.38218 (Simulation time: 0 hr 14 min 47 sec) 
Heartbeat CPU  0 instructions:  508000000 cycles: 1174795087 heartbeat IPC: 0.36359 cumulative IPC: 0.38213 (Simulation time: 0 hr 14 min 49 sec) 
Heartbeat CPU  0 instructions:  509000001 cycles: 1177364672 heartbeat IPC: 0.38917 cumulative IPC: 0.38215 (Simulation time: 0 hr 14 min 50 sec) 
Heartbeat CPU  0 instructions:  510000003 cycles: 1180104944 heartbeat IPC: 0.36493 cumulative IPC: 0.38210 (Simulation time: 0 hr 14 min 52 sec) 
Heartbeat CPU  0 instructions:  511000001 cycles: 1182546351 heartbeat IPC: 0.40960 cumulative IPC: 0.38216 (Simulation time: 0 hr 14 min 54 sec) 
Heartbeat CPU  0 instructions:  512000000 cycles: 1185302011 heartbeat IPC: 0.36289 cumulative IPC: 0.38211 (Simulation time: 0 hr 14 min 56 sec) 
Heartbeat CPU  0 instructions:  513000001 cycles: 1188013226 heartbeat IPC: 0.36884 cumulative IPC: 0.38208 (Simulation time: 0 hr 14 min 58 sec) 
Heartbeat CPU  0 instructions:  514000002 cycles: 1190708896 heartbeat IPC: 0.37097 cumulative IPC: 0.38205 (Simulation time: 0 hr 14 min 59 sec) 
Heartbeat CPU  0 instructions:  515000001 cycles: 1193244778 heartbeat IPC: 0.39434 cumulative IPC: 0.38208 (Simulation time: 0 hr 15 min 1 sec) 
Heartbeat CPU  0 instructions:  516000000 cycles: 1195750453 heartbeat IPC: 0.39909 cumulative IPC: 0.38212 (Simulation time: 0 hr 15 min 3 sec) 
Heartbeat CPU  0 instructions:  517000002 cycles: 1198574671 heartbeat IPC: 0.35408 cumulative IPC: 0.38205 (Simulation time: 0 hr 15 min 5 sec) 
Heartbeat CPU  0 instructions:  518000001 cycles: 1201392299 heartbeat IPC: 0.35491 cumulative IPC: 0.38198 (Simulation time: 0 hr 15 min 7 sec) 
Heartbeat CPU  0 instructions:  519000001 cycles: 1204099238 heartbeat IPC: 0.36942 cumulative IPC: 0.38195 (Simulation time: 0 hr 15 min 8 sec) 
Heartbeat CPU  0 instructions:  520000000 cycles: 1206907003 heartbeat IPC: 0.35615 cumulative IPC: 0.38188 (Simulation time: 0 hr 15 min 10 sec) 
Heartbeat CPU  0 instructions:  521000000 cycles: 1209562594 heartbeat IPC: 0.37656 cumulative IPC: 0.38187 (Simulation time: 0 hr 15 min 12 sec) 
Heartbeat CPU  0 instructions:  522000000 cycles: 1212212747 heartbeat IPC: 0.37734 cumulative IPC: 0.38186 (Simulation time: 0 hr 15 min 14 sec) 
Heartbeat CPU  0 instructions:  523000002 cycles: 1214691623 heartbeat IPC: 0.40341 cumulative IPC: 0.38191 (Simulation time: 0 hr 15 min 16 sec) 
Heartbeat CPU  0 instructions:  524000000 cycles: 1217473567 heartbeat IPC: 0.35946 cumulative IPC: 0.38185 (Simulation time: 0 hr 15 min 18 sec) 
Heartbeat CPU  0 instructions:  525000000 cycles: 1220061580 heartbeat IPC: 0.38640 cumulative IPC: 0.38186 (Simulation time: 0 hr 15 min 19 sec) 
Heartbeat CPU  0 instructions:  526000000 cycles: 1222659323 heartbeat IPC: 0.38495 cumulative IPC: 0.38187 (Simulation time: 0 hr 15 min 21 sec) 
Heartbeat CPU  0 instructions:  527000000 cycles: 1224971701 heartbeat IPC: 0.43246 cumulative IPC: 0.38197 (Simulation time: 0 hr 15 min 23 sec) 
Heartbeat CPU  0 instructions:  528000000 cycles: 1227455379 heartbeat IPC: 0.40263 cumulative IPC: 0.38202 (Simulation time: 0 hr 15 min 25 sec) 
Heartbeat CPU  0 instructions:  529000001 cycles: 1229843017 heartbeat IPC: 0.41882 cumulative IPC: 0.38210 (Simulation time: 0 hr 15 min 26 sec) 
Heartbeat CPU  0 instructions:  530000000 cycles: 1232098145 heartbeat IPC: 0.44343 cumulative IPC: 0.38222 (Simulation time: 0 hr 15 min 28 sec) 
Heartbeat CPU  0 instructions:  531000001 cycles: 1234648924 heartbeat IPC: 0.39204 cumulative IPC: 0.38224 (Simulation time: 0 hr 15 min 30 sec) 
Heartbeat CPU  0 instructions:  532000000 cycles: 1236841120 heartbeat IPC: 0.45616 cumulative IPC: 0.38239 (Simulation time: 0 hr 15 min 32 sec) 
Heartbeat CPU  0 instructions:  533000000 cycles: 1239652934 heartbeat IPC: 0.35564 cumulative IPC: 0.38232 (Simulation time: 0 hr 15 min 33 sec) 
Heartbeat CPU  0 instructions:  534000003 cycles: 1242041507 heartbeat IPC: 0.41866 cumulative IPC: 0.38240 (Simulation time: 0 hr 15 min 35 sec) 
Heartbeat CPU  0 instructions:  535000002 cycles: 1244799968 heartbeat IPC: 0.36252 cumulative IPC: 0.38235 (Simulation time: 0 hr 15 min 37 sec) 
Heartbeat CPU  0 instructions:  536000000 cycles: 1247215216 heartbeat IPC: 0.41404 cumulative IPC: 0.38241 (Simulation time: 0 hr 15 min 39 sec) 
Heartbeat CPU  0 instructions:  537000002 cycles: 1249744362 heartbeat IPC: 0.39539 cumulative IPC: 0.38244 (Simulation time: 0 hr 15 min 40 sec) 
Heartbeat CPU  0 instructions:  538000000 cycles: 1252257970 heartbeat IPC: 0.39783 cumulative IPC: 0.38248 (Simulation time: 0 hr 15 min 42 sec) 
Heartbeat CPU  0 instructions:  539000001 cycles: 1254819400 heartbeat IPC: 0.39041 cumulative IPC: 0.38250 (Simulation time: 0 hr 15 min 44 sec) 
Heartbeat CPU  0 instructions:  540000000 cycles: 1257375707 heartbeat IPC: 0.39119 cumulative IPC: 0.38251 (Simulation time: 0 hr 15 min 46 sec) 
Heartbeat CPU  0 instructions:  541000001 cycles: 1260150541 heartbeat IPC: 0.36038 cumulative IPC: 0.38246 (Simulation time: 0 hr 15 min 48 sec) 
Heartbeat CPU  0 instructions:  542000001 cycles: 1262813242 heartbeat IPC: 0.37556 cumulative IPC: 0.38245 (Simulation time: 0 hr 15 min 49 sec) 
Heartbeat CPU  0 instructions:  543000002 cycles: 1265605752 heartbeat IPC: 0.35810 cumulative IPC: 0.38239 (Simulation time: 0 hr 15 min 51 sec) 
Heartbeat CPU  0 instructions:  544000000 cycles: 1268263941 heartbeat IPC: 0.37620 cumulative IPC: 0.38237 (Simulation time: 0 hr 15 min 53 sec) 
Heartbeat CPU  0 instructions:  545000001 cycles: 1270946847 heartbeat IPC: 0.37273 cumulative IPC: 0.38235 (Simulation time: 0 hr 15 min 55 sec) 
Heartbeat CPU  0 instructions:  546000001 cycles: 1273690328 heartbeat IPC: 0.36450 cumulative IPC: 0.38231 (Simulation time: 0 hr 15 min 57 sec) 
Heartbeat CPU  0 instructions:  547000000 cycles: 1276372624 heartbeat IPC: 0.37281 cumulative IPC: 0.38229 (Simulation time: 0 hr 15 min 59 sec) 
Heartbeat CPU  0 instructions:  548000000 cycles: 1278948865 heartbeat IPC: 0.38816 cumulative IPC: 0.38230 (Simulation time: 0 hr 16 min 0 sec) 
Heartbeat CPU  0 instructions:  549000000 cycles: 1281495699 heartbeat IPC: 0.39264 cumulative IPC: 0.38232 (Simulation time: 0 hr 16 min 2 sec) 
Heartbeat CPU  0 instructions:  550000001 cycles: 1284392655 heartbeat IPC: 0.34519 cumulative IPC: 0.38223 (Simulation time: 0 hr 16 min 4 sec) 
Heartbeat CPU  0 instructions:  551000003 cycles: 1287069287 heartbeat IPC: 0.37360 cumulative IPC: 0.38221 (Simulation time: 0 hr 16 min 6 sec) 
Heartbeat CPU  0 instructions:  552000000 cycles: 1289670428 heartbeat IPC: 0.38445 cumulative IPC: 0.38222 (Simulation time: 0 hr 16 min 8 sec) 
Heartbeat CPU  0 instructions:  553000002 cycles: 1292306061 heartbeat IPC: 0.37942 cumulative IPC: 0.38221 (Simulation time: 0 hr 16 min 9 sec) 
Heartbeat CPU  0 instructions:  554000000 cycles: 1294794500 heartbeat IPC: 0.40186 cumulative IPC: 0.38225 (Simulation time: 0 hr 16 min 11 sec) 
Heartbeat CPU  0 instructions:  555000003 cycles: 1297569668 heartbeat IPC: 0.36034 cumulative IPC: 0.38220 (Simulation time: 0 hr 16 min 13 sec) 
Heartbeat CPU  0 instructions:  556000000 cycles: 1300239583 heartbeat IPC: 0.37454 cumulative IPC: 0.38218 (Simulation time: 0 hr 16 min 15 sec) 
Heartbeat CPU  0 instructions:  557000000 cycles: 1302886725 heartbeat IPC: 0.37777 cumulative IPC: 0.38217 (Simulation time: 0 hr 16 min 17 sec) 
Heartbeat CPU  0 instructions:  558000001 cycles: 1305669358 heartbeat IPC: 0.35937 cumulative IPC: 0.38212 (Simulation time: 0 hr 16 min 19 sec) 
Heartbeat CPU  0 instructions:  559000001 cycles: 1308579495 heartbeat IPC: 0.34363 cumulative IPC: 0.38203 (Simulation time: 0 hr 16 min 20 sec) 
Heartbeat CPU  0 instructions:  560000000 cycles: 1311411208 heartbeat IPC: 0.35314 cumulative IPC: 0.38196 (Simulation time: 0 hr 16 min 22 sec) 
Heartbeat CPU  0 instructions:  561000002 cycles: 1314167005 heartbeat IPC: 0.36287 cumulative IPC: 0.38192 (Simulation time: 0 hr 16 min 24 sec) 
Heartbeat CPU  0 instructions:  562000002 cycles: 1316833318 heartbeat IPC: 0.37505 cumulative IPC: 0.38190 (Simulation time: 0 hr 16 min 26 sec) 
Heartbeat CPU  0 instructions:  563000000 cycles: 1319632800 heartbeat IPC: 0.35721 cumulative IPC: 0.38184 (Simulation time: 0 hr 16 min 28 sec) 
Heartbeat CPU  0 instructions:  564000000 cycles: 1322368854 heartbeat IPC: 0.36549 cumulative IPC: 0.38181 (Simulation time: 0 hr 16 min 30 sec) 
Heartbeat CPU  0 instructions:  565000000 cycles: 1325159203 heartbeat IPC: 0.35838 cumulative IPC: 0.38175 (Simulation time: 0 hr 16 min 32 sec) 
Heartbeat CPU  0 instructions:  566000001 cycles: 1327731608 heartbeat IPC: 0.38874 cumulative IPC: 0.38177 (Simulation time: 0 hr 16 min 33 sec) 
Heartbeat CPU  0 instructions:  567000000 cycles: 1330529259 heartbeat IPC: 0.35744 cumulative IPC: 0.38171 (Simulation time: 0 hr 16 min 35 sec) 
Heartbeat CPU  0 instructions:  568000000 cycles: 1333197425 heartbeat IPC: 0.37479 cumulative IPC: 0.38170 (Simulation time: 0 hr 16 min 37 sec) 
Heartbeat CPU  0 instructions:  569000001 cycles: 1336028265 heartbeat IPC: 0.35325 cumulative IPC: 0.38163 (Simulation time: 0 hr 16 min 40 sec) 
Heartbeat CPU  0 instructions:  570000002 cycles: 1338534567 heartbeat IPC: 0.39899 cumulative IPC: 0.38167 (Simulation time: 0 hr 16 min 41 sec) 
Heartbeat CPU  0 instructions:  571000000 cycles: 1341244392 heartbeat IPC: 0.36903 cumulative IPC: 0.38164 (Simulation time: 0 hr 16 min 43 sec) 
Heartbeat CPU  0 instructions:  572000000 cycles: 1343880628 heartbeat IPC: 0.37933 cumulative IPC: 0.38163 (Simulation time: 0 hr 16 min 45 sec) 
Heartbeat CPU  0 instructions:  573000001 cycles: 1346320366 heartbeat IPC: 0.40988 cumulative IPC: 0.38169 (Simulation time: 0 hr 16 min 47 sec) 
Heartbeat CPU  0 instructions:  574000001 cycles: 1349028203 heartbeat IPC: 0.36930 cumulative IPC: 0.38166 (Simulation time: 0 hr 16 min 49 sec) 
Heartbeat CPU  0 instructions:  575000002 cycles: 1351614994 heartbeat IPC: 0.38658 cumulative IPC: 0.38167 (Simulation time: 0 hr 16 min 50 sec) 
Heartbeat CPU  0 instructions:  576000000 cycles: 1354267936 heartbeat IPC: 0.37694 cumulative IPC: 0.38166 (Simulation time: 0 hr 16 min 52 sec) 
Heartbeat CPU  0 instructions:  577000000 cycles: 1356857578 heartbeat IPC: 0.38615 cumulative IPC: 0.38167 (Simulation time: 0 hr 16 min 54 sec) 
Heartbeat CPU  0 instructions:  578000002 cycles: 1359151665 heartbeat IPC: 0.43590 cumulative IPC: 0.38177 (Simulation time: 0 hr 16 min 56 sec) 
Heartbeat CPU  0 instructions:  579000000 cycles: 1361944729 heartbeat IPC: 0.35803 cumulative IPC: 0.38172 (Simulation time: 0 hr 16 min 58 sec) 
Heartbeat CPU  0 instructions:  580000000 cycles: 1364754847 heartbeat IPC: 0.35586 cumulative IPC: 0.38166 (Simulation time: 0 hr 16 min 59 sec) 
Heartbeat CPU  0 instructions:  581000001 cycles: 1367481750 heartbeat IPC: 0.36672 cumulative IPC: 0.38163 (Simulation time: 0 hr 17 min 1 sec) 
Heartbeat CPU  0 instructions:  582000001 cycles: 1370385982 heartbeat IPC: 0.34433 cumulative IPC: 0.38154 (Simulation time: 0 hr 17 min 3 sec) 
Heartbeat CPU  0 instructions:  583000000 cycles: 1373241040 heartbeat IPC: 0.35026 cumulative IPC: 0.38147 (Simulation time: 0 hr 17 min 5 sec) 
Heartbeat CPU  0 instructions:  584000000 cycles: 1375896556 heartbeat IPC: 0.37657 cumulative IPC: 0.38146 (Simulation time: 0 hr 17 min 7 sec) 
Heartbeat CPU  0 instructions:  585000003 cycles: 1378526922 heartbeat IPC: 0.38018 cumulative IPC: 0.38146 (Simulation time: 0 hr 17 min 9 sec) 
Heartbeat CPU  0 instructions:  586000000 cycles: 1381416430 heartbeat IPC: 0.34608 cumulative IPC: 0.38138 (Simulation time: 0 hr 17 min 11 sec) 
Heartbeat CPU  0 instructions:  587000000 cycles: 1384100329 heartbeat IPC: 0.37259 cumulative IPC: 0.38136 (Simulation time: 0 hr 17 min 12 sec) 
Heartbeat CPU  0 instructions:  588000000 cycles: 1386880995 heartbeat IPC: 0.35963 cumulative IPC: 0.38131 (Simulation time: 0 hr 17 min 14 sec) 
Heartbeat CPU  0 instructions:  589000000 cycles: 1389668789 heartbeat IPC: 0.35871 cumulative IPC: 0.38126 (Simulation time: 0 hr 17 min 16 sec) 
Heartbeat CPU  0 instructions:  590000001 cycles: 1392116814 heartbeat IPC: 0.40849 cumulative IPC: 0.38132 (Simulation time: 0 hr 17 min 18 sec) 
Heartbeat CPU  0 instructions:  591000003 cycles: 1394761843 heartbeat IPC: 0.37807 cumulative IPC: 0.38131 (Simulation time: 0 hr 17 min 20 sec) 
Heartbeat CPU  0 instructions:  592000000 cycles: 1397550667 heartbeat IPC: 0.35857 cumulative IPC: 0.38126 (Simulation time: 0 hr 17 min 21 sec) 
Heartbeat CPU  0 instructions:  593000000 cycles: 1400271119 heartbeat IPC: 0.36759 cumulative IPC: 0.38123 (Simulation time: 0 hr 17 min 23 sec) 
Heartbeat CPU  0 instructions:  594000000 cycles: 1402550147 heartbeat IPC: 0.43878 cumulative IPC: 0.38133 (Simulation time: 0 hr 17 min 25 sec) 
Heartbeat CPU  0 instructions:  595000001 cycles: 1405099773 heartbeat IPC: 0.39221 cumulative IPC: 0.38135 (Simulation time: 0 hr 17 min 27 sec) 
Heartbeat CPU  0 instructions:  596000000 cycles: 1407893345 heartbeat IPC: 0.35796 cumulative IPC: 0.38130 (Simulation time: 0 hr 17 min 29 sec) 
Heartbeat CPU  0 instructions:  597000000 cycles: 1410775295 heartbeat IPC: 0.34699 cumulative IPC: 0.38123 (Simulation time: 0 hr 17 min 31 sec) 
Heartbeat CPU  0 instructions:  598000000 cycles: 1413355826 heartbeat IPC: 0.38752 cumulative IPC: 0.38124 (Simulation time: 0 hr 17 min 32 sec) 
Heartbeat CPU  0 instructions:  599000000 cycles: 1416247259 heartbeat IPC: 0.34585 cumulative IPC: 0.38116 (Simulation time: 0 hr 17 min 34 sec) 
Heartbeat CPU  0 instructions:  600000000 cycles: 1418681483 heartbeat IPC: 0.41081 cumulative IPC: 0.38122 (Simulation time: 0 hr 17 min 36 sec) 
Finished CPU 0 instructions: 500000000 cycles: 1311589281 cumulative IPC: 0.38122 (Simulation time: 0 hr 17 min 36 sec) 

ChampSim completed all CPUs

[ROI Statistics]
Core_0_instructions 500000000
Core_0_cycles 1311589281
Core_0_IPC 0.38122

Core_0_branch_prediction_accuracy 85.18932
Core_0_branch_MPKI 24.43069
Core_0_average_ROB_occupancy_at_mispredict 38.24742

Core_0_L1D_total_access 155534434
Core_0_L1D_total_hit 153218798
Core_0_L1D_total_miss 2315636
Core_0_L1D_loads 89629705
Core_0_L1D_load_hit 88800174
Core_0_L1D_load_miss 829531
Core_0_L1D_RFOs 65904729
Core_0_L1D_RFO_hit 64418624
Core_0_L1D_RFO_miss 1486105
Core_0_L1D_prefetches 0
Core_0_L1D_prefetch_hit 0
Core_0_L1D_prefetch_miss 0
Core_0_L1D_writebacks 0
Core_0_L1D_writeback_hit 0
Core_0_L1D_writeback_miss 0
Core_0_L1D_prefetch_requested 0
Core_0_L1D_prefetch_dropped 0
Core_0_L1D_prefetch_issued 0
Core_0_L1D_prefetch_filled 0
Core_0_L1D_prefetch_useful 0
Core_0_L1D_prefetch_useless 0
Core_0_L1D_prefetch_late 0
Core_0_L1D_average_miss_latency 198.61979

Core_0_L1D_rq_access 125890329
Core_0_L1D_rq_forward 0
Core_0_L1D_rq_merged 36168913
Core_0_L1D_rq_to_cache 89720830
Core_0_L1D_rq_full 0

Core_0_L1D_wq_access 70505122
Core_0_L1D_wq_forward 586
Core_0_L1D_wq_merged 423329
Core_0_L1D_wq_to_cache 70081793
Core_0_L1D_wq_full 16249607

Core_0_L1D_pq_access 0
Core_0_L1D_pq_forward 0
Core_0_L1D_pq_merged 0
Core_0_L1D_pq_to_cache 0
Core_0_L1D_pq_full 0

Core_0_L1D_acc_epochs 1383178
Core_0_L1D_acc_level_0 1383178
Core_0_L1D_acc_level_1 0
Core_0_L1D_acc_level_2 0
Core_0_L1D_acc_level_3 0
Core_0_L1D_acc_level_4 0
Core_0_L1D_acc_level_5 0
Core_0_L1D_acc_level_6 0
Core_0_L1D_acc_level_7 0
Core_0_L1D_acc_level_8 0
Core_0_L1D_acc_level_9 0

Core_0_L1I_total_access 100037246
Core_0_L1I_total_hit 98092309
Core_0_L1I_total_miss 1944937
Core_0_L1I_loads 100037246
Core_0_L1I_load_hit 98092309
Core_0_L1I_load_miss 1944937
Core_0_L1I_RFOs 0
Core_0_L1I_RFO_hit 0
Core_0_L1I_RFO_miss 0
Core_0_L1I_prefetches 0
Core_0_L1I_prefetch_hit 0
Core_0_L1I_prefetch_miss 0
Core_0_L1I_writebacks 0
Core_0_L1I_writeback_hit 0
Core_0_L1I_writeback_miss 0
Core_0_L1I_prefetch_requested 0
Core_0_L1I_prefetch_dropped 0
Core_0_L1I_prefetch_issued 0
Core_0_L1I_prefetch_filled 0
Core_0_L1I_prefetch_useful 0
Core_0_L1I_prefetch_useless 0
Core_0_L1I_prefetch_late 0
Core_0_L1I_average_miss_latency 12.77092

Core_0_L1I_rq_access 499999934
Core_0_L1I_rq_forward 0
Core_0_L1I_rq_merged 399247285
Core_0_L1I_rq_to_cache 100752649
Core_0_L1I_rq_full 0

Core_0_L1I_wq_access 0
Core_0_L1I_wq_forward 0
Core_0_L1I_wq_merged 0
Core_0_L1I_wq_to_cache 0
Core_0_L1I_wq_full 0

Core_0_L1I_pq_access 0
Core_0_L1I_pq_forward 0
Core_0_L1I_pq_merged 0
Core_0_L1I_pq_to_cache 0
Core_0_L1I_pq_full 0

Core_0_L1I_acc_epochs 1383178
Core_0_L1I_acc_level_0 1383178
Core_0_L1I_acc_level_1 0
Core_0_L1I_acc_level_2 0
Core_0_L1I_acc_level_3 0
Core_0_L1I_acc_level_4 0
Core_0_L1I_acc_level_5 0
Core_0_L1I_acc_level_6 0
Core_0_L1I_acc_level_7 0
Core_0_L1I_acc_level_8 0
Core_0_L1I_acc_level_9 0

Core_0_L2C_total_access 6708064
Core_0_L2C_total_hit 5384425
Core_0_L2C_total_miss 1323639
Core_0_L2C_loads 2774446
Core_0_L2C_load_hit 2348900
Core_0_L2C_load_miss 425546
Core_0_L2C_RFOs 1486060
Core_0_L2C_RFO_hit 610969
Core_0_L2C_RFO_miss 875091
Core_0_L2C_prefetches 693371
Core_0_L2C_prefetch_hit 672226
Core_0_L2C_prefetch_miss 21145
Core_0_L2C_writebacks 1754187
Core_0_L2C_writeback_hit 1752330
Core_0_L2C_writeback_miss 1857
Core_0_L2C_prefetch_requested 1555362
Core_0_L2C_prefetch_dropped 0
Core_0_L2C_prefetch_issued 1555362
Core_0_L2C_prefetch_filled 22428
Core_0_L2C_prefetch_useful 22207
Core_0_L2C_prefetch_useless 221
Core_0_L2C_prefetch_late 6245
Core_0_L2C_average_miss_latency 324.84278

Core_0_L2C_rq_access 4260573
Core_0_L2C_rq_forward 0
Core_0_L2C_rq_merged 0
Core_0_L2C_rq_to_cache 4260506
Core_0_L2C_rq_full 0

Core_0_L2C_wq_access 1754187
Core_0_L2C_wq_forward 68
Core_0_L2C_wq_merged 0
Core_0_L2C_wq_to_cache 1754187
Core_0_L2C_wq_full 0

Core_0_L2C_pq_access 1555362
Core_0_L2C_pq_forward 0
Core_0_L2C_pq_merged 243622
Core_0_L2C_pq_to_cache 1311739
Core_0_L2C_pq_full 0

Core_0_L2C_acc_epochs 1383178
Core_0_L2C_acc_level_0 1377593
Core_0_L2C_acc_level_1 421
Core_0_L2C_acc_level_2 381
Core_0_L2C_acc_level_3 181
Core_0_L2C_acc_level_4 220
Core_0_L2C_acc_level_5 447
Core_0_L2C_acc_level_6 160
Core_0_L2C_acc_level_7 329
Core_0_L2C_acc_level_8 431
Core_0_L2C_acc_level_9 3015

Core_0_LLC_total_access 2733875
Core_0_LLC_total_hit 1168742
Core_0_LLC_total_miss 1565133
Core_0_LLC_loads 419301
Core_0_LLC_load_hit 326755
Core_0_LLC_load_miss 92546
Core_0_LLC_RFOs 875089
Core_0_LLC_RFO_hit 121704
Core_0_LLC_RFO_miss 753385
Core_0_LLC_prefetches 417591
Core_0_LLC_prefetch_hit 366177
Core_0_LLC_prefetch_miss 51414
Core_0_LLC_writebacks 1021894
Core_0_LLC_writeback_hit 354106
Core_0_LLC_writeback_miss 667788
Core_0_LLC_prefetch_requested 0
Core_0_LLC_prefetch_dropped 0
Core_0_LLC_prefetch_issued 0
Core_0_LLC_prefetch_filled 65226
Core_0_LLC_prefetch_useful 40603
Core_0_LLC_prefetch_useless 22460
Core_0_LLC_prefetch_late 2074
Core_0_LLC_average_miss_latency 254.86192

Core_0_LLC_rq_access 1294392
Core_0_LLC_rq_forward 0
Core_0_LLC_rq_merged 0
Core_0_LLC_rq_to_cache 1294390
Core_0_LLC_rq_full 0

Core_0_LLC_wq_access 1021894
Core_0_LLC_wq_forward 2
Core_0_LLC_wq_merged 0
Core_0_LLC_wq_to_cache 1021894
Core_0_LLC_wq_full 0

Core_0_LLC_pq_access 479168
Core_0_LLC_pq_forward 0
Core_0_LLC_pq_merged 6410
Core_0_LLC_pq_to_cache 472758
Core_0_LLC_pq_full 0

Core_0_LLC_acc_epochs 1385432
Core_0_LLC_acc_level_0 1331086
Core_0_LLC_acc_level_1 19030
Core_0_LLC_acc_level_2 18010
Core_0_LLC_acc_level_3 807
Core_0_LLC_acc_level_4 169
Core_0_LLC_acc_level_5 14464
Core_0_LLC_acc_level_6 289
Core_0_LLC_acc_level_7 330
Core_0_LLC_acc_level_8 116
Core_0_LLC_acc_level_9 1131

Core_0_major_page_fault 0
Core_0_minor_page_fault 6639

spp.pref.total 1555362
spp.pref.at_L2 65913
spp.pref.at_LLC 1489449

spp.depth.max 11
spp.depth.min 0
spp.depth.avg 0

spp.breadth.max 2
spp.breadth.min 0
spp.breadth.avg 0

delta_1 1664683
delta_-1 19607
delta_7 13126
delta_2 11354
delta_8 5904
delta_4 5340
delta_-2 4473
delta_3 2528
delta_6 719
delta_-6 716
delta_-7 301
delta_9 242
delta_-5 105
delta_25 85
delta_-9 81
delta_13 55
delta_-24 45
delta_-25 43
delta_20 39
delta_-3 36
delta_5 15
delta_26 13
delta_-11 9
delta_-26 9
delta_-4 9
delta_-38 7
delta_-23 6
delta_-13 6
delta_-14 6
delta_11 3
delta_-50 2
delta_-48 1
delta_14 1
delta_24 1

depth_1_delta_1 963168
depth_1_delta_7 12874
depth_1_delta_-1 12220
depth_1_delta_2 9860
depth_1_delta_8 5830
depth_1_delta_4 4392
depth_1_delta_-2 4022
depth_1_delta_3 2492
depth_1_delta_-6 716
depth_1_delta_6 459
depth_1_delta_-7 272
depth_1_delta_9 196
depth_1_delta_25 74
depth_1_delta_-5 70
depth_1_delta_13 55
depth_1_delta_-25 43
depth_1_delta_20 39
depth_1_delta_-24 37
depth_1_delta_-9 36
depth_1_delta_-3 25
depth_1_delta_5 15
depth_1_delta_26 12
depth_1_delta_-11 9
depth_1_delta_-26 9
depth_1_delta_-4 9
depth_1_delta_-38 7
depth_1_delta_-23 6
depth_1_delta_-13 6
depth_1_delta_-14 6
depth_1_delta_11 3
depth_1_delta_-50 2
depth_1_delta_-48 1
depth_1_delta_14 1
depth_1_delta_24 1
depth_2_delta_1 134186
depth_2_delta_-1 3860
depth_2_delta_2 1395
depth_2_delta_4 921
depth_2_delta_-2 409
depth_2_delta_7 213
depth_2_delta_6 134
depth_2_delta_8 74
depth_2_delta_9 44
depth_2_delta_3 36
depth_2_delta_-5 23
depth_2_delta_-9 18
depth_2_delta_-7 16
depth_2_delta_25 11
depth_2_delta_-3 9
depth_2_delta_-24 8
depth_2_delta_26 1
depth_3_delta_1 111252
depth_3_delta_-1 1807
depth_3_delta_2 82
depth_3_delta_6 80
depth_3_delta_-2 38
depth_3_delta_4 27
depth_3_delta_7 22
depth_3_delta_-9 15
depth_3_delta_-5 10
depth_3_delta_-7 9
depth_3_delta_-3 2
depth_3_delta_9 2
depth_4_delta_1 104396
depth_4_delta_-1 809
depth_4_delta_6 34
depth_4_delta_2 16
depth_4_delta_7 12
depth_4_delta_-9 10
depth_4_delta_-7 4
depth_4_delta_-2 4
depth_4_delta_-5 2
depth_5_delta_1 100462
depth_5_delta_-1 436
depth_5_delta_6 11
depth_5_delta_7 5
depth_5_delta_-9 2
depth_5_delta_2 1
depth_6_delta_1 84808
depth_6_delta_-1 235
depth_6_delta_6 1
depth_7_delta_1 70024
depth_7_delta_-1 133
depth_8_delta_1 55163
depth_8_delta_-1 73
depth_9_delta_1 31924
depth_9_delta_-1 28
depth_10_delta_1 9292
depth_10_delta_-1 6
depth_11_delta_1 8

Channel_0_RQ_row_buffer_hit 331513
Channel_0_RQ_row_buffer_miss 565829
Channel_0_WQ_row_buffer_hit 333183
Channel_0_WQ_row_buffer_miss 519912
Channel_0_WQ_full 68304
Channel_0_dbus_congested 713996

avg_congested_cycle 2

DRAM_bw_pochs 5541725
DRAM_bw_level_0 5536460
DRAM_bw_level_1 4775
DRAM_bw_level_2 490
DRAM_bw_level_3 0
