*************************************************
   ChampSim Multicore Out-of-Order Simulator
   Last compiled: Dec 11 2024 17:59:53
*************************************************
parsing config file: /home/functionmain/桌面/Pythia/config/bingo.ini

trace_0 /home/functionmain/桌面/Pythia/traces/445.gobmk-30B.champsimtrace.xz
adding L2C_PREFETCHER: Bingo
Initialize SHIP state
warmup_instructions 100000000
simulation_instructions 500000000
champsim_seed 165
measure_ipc 0
measure_ipc_epoch 1000
measure_dram_bw 1
measure_dram_bw_epoch 256
measure_cache_acc 1
measure_cache_acc_epoch 1024
l1d_perfect 0
l2c_perfect 0
llc_perfect 0
l1d_semi_perfect 0
l2c_semi_perfect 0
llc_semi_perfect 0
semi_perfect_cache_page_buffer_size 64

num_cpus 1
cpu_freq 4000
dram_io_freq 9600
page_size 4096
block_size 64
max_read_per_cycle 8
max_fill_per_cycle 1
dram_channels 1
log2_dram_channels 0
dram_ranks 1
dram_banks 8
dram_rows 65536
dram_columns 128
dram_row_size 8
dram_size 4096
dram_pages 1048576

fetch_width 6
decode_width 6
exec_width 4
lq_width 2
sq_width 2
retire_width 4
scheduler_size 128
branch_mispredict_penalty 20
rob_size 256
lq_size 72
sq_size 56
num_instr_destinations_sparc 4
num_instr_destinations 2
num_instr_sources 4

itlb_set 16
itlb_way 8
itlb_rq_size 16
itlb_wq_size 16
itlb_pq_size 0
itlb_mshr_size 8
itlb_latency 1

dtlb_set 16
dtlb_way 4
dtlb_rq_size 16
dtlb_wq_size 16
dtlb_pq_size 0
dtlb_mshr_size 8
dtlb_latency 1

stlb_set 128
stlb_way 12
stlb_rq_size 32
stlb_wq_size 32
stlb_pq_size 0
stlb_mshr_size 16
stlb_latency 8

l1i_size 32
l1i_set 64
l1i_way 8
l1i_rq_size 64
l1i_wq_size 64
l1i_pq_size 8
l1i_mshr_size 8
l1i_latency 1

l1d_size 32
l1d_set 64
l1d_way 8
l1d_rq_size 64
l1d_wq_size 64
l1d_pq_size 8
l1d_mshr_size 16
l1d_latency 4

l2c_size 256
l2c_set 512
l2c_way 8
l2c_rq_size 32
l2c_wq_size 32
l2c_pq_size 32
l2c_mshr_size 32
l2c_latency 10

llc_size 2048
llc_set 2048
llc_way 16
llc_rq_size 32
llc_wq_size 32
llc_pq_size 32
llc_mshr_size 64
llc_latency 20

dram_channel_width 8
dram_wq_size 64
dram_rq_size 64
tRP 15
tRCD 15
tCAS 12.5
dram_dbus_turn_around_time 30
dram_write_high_wm 56
dram_write_low_wm 48
min_dram_writes_per_switch 16
dram_mtps 9600
dram_dbus_return_time 3

bingo_region_size 2048
bingo_pattern_len 32
bingo_pc_width 16
bingo_min_addr_width 5
bingo_max_addr_width 16
bingo_ft_size 64
bingo_at_size 128
bingo_pht_size 4096
bingo_pht_ways 16
bingo_pf_streamer_size 128
bingo_debug_level 0
bingo_l1d_thresh 1.01
bingo_l2c_thresh 0.8
bingo_llc_thresh 0.05
bingo_pc_address_fill_level L2


Heartbeat CPU  0 instructions:    1000000 cycles:     861996 heartbeat IPC: 1.16010 cumulative IPC: 1.16010 (Simulation time: 0 hr 0 min 1 sec) 
Heartbeat CPU  0 instructions:    2000000 cycles:    1865282 heartbeat IPC: 0.99672 cumulative IPC: 1.07222 (Simulation time: 0 hr 0 min 2 sec) 
Heartbeat CPU  0 instructions:    3000001 cycles:    2991131 heartbeat IPC: 0.88822 cumulative IPC: 1.00297 (Simulation time: 0 hr 0 min 3 sec) 
Heartbeat CPU  0 instructions:    4000000 cycles:    4091971 heartbeat IPC: 0.90840 cumulative IPC: 0.97752 (Simulation time: 0 hr 0 min 4 sec) 
Heartbeat CPU  0 instructions:    5000001 cycles:    5174191 heartbeat IPC: 0.92403 cumulative IPC: 0.96633 (Simulation time: 0 hr 0 min 6 sec) 
Heartbeat CPU  0 instructions:    6000000 cycles:    6296948 heartbeat IPC: 0.89066 cumulative IPC: 0.95284 (Simulation time: 0 hr 0 min 7 sec) 
Heartbeat CPU  0 instructions:    7000001 cycles:    7364161 heartbeat IPC: 0.93702 cumulative IPC: 0.95055 (Simulation time: 0 hr 0 min 8 sec) 
Heartbeat CPU  0 instructions:    8000000 cycles:    8566901 heartbeat IPC: 0.83143 cumulative IPC: 0.93383 (Simulation time: 0 hr 0 min 9 sec) 
Heartbeat CPU  0 instructions:    9000000 cycles:    9686295 heartbeat IPC: 0.89334 cumulative IPC: 0.92915 (Simulation time: 0 hr 0 min 10 sec) 
Heartbeat CPU  0 instructions:   10000003 cycles:   10816029 heartbeat IPC: 0.88517 cumulative IPC: 0.92455 (Simulation time: 0 hr 0 min 11 sec) 
Heartbeat CPU  0 instructions:   11000000 cycles:   11873768 heartbeat IPC: 0.94541 cumulative IPC: 0.92641 (Simulation time: 0 hr 0 min 13 sec) 
Heartbeat CPU  0 instructions:   12000000 cycles:   13017867 heartbeat IPC: 0.87405 cumulative IPC: 0.92181 (Simulation time: 0 hr 0 min 14 sec) 
Heartbeat CPU  0 instructions:   13000001 cycles:   14157291 heartbeat IPC: 0.87764 cumulative IPC: 0.91825 (Simulation time: 0 hr 0 min 15 sec) 
Heartbeat CPU  0 instructions:   14000000 cycles:   15083986 heartbeat IPC: 1.07910 cumulative IPC: 0.92814 (Simulation time: 0 hr 0 min 16 sec) 
Heartbeat CPU  0 instructions:   15000001 cycles:   16047848 heartbeat IPC: 1.03749 cumulative IPC: 0.93470 (Simulation time: 0 hr 0 min 17 sec) 
Heartbeat CPU  0 instructions:   16000000 cycles:   17176785 heartbeat IPC: 0.88579 cumulative IPC: 0.93149 (Simulation time: 0 hr 0 min 18 sec) 
Heartbeat CPU  0 instructions:   17000000 cycles:   18272241 heartbeat IPC: 0.91286 cumulative IPC: 0.93037 (Simulation time: 0 hr 0 min 20 sec) 
Heartbeat CPU  0 instructions:   18000003 cycles:   19388636 heartbeat IPC: 0.89574 cumulative IPC: 0.92838 (Simulation time: 0 hr 0 min 21 sec) 
Heartbeat CPU  0 instructions:   19000001 cycles:   20469770 heartbeat IPC: 0.92495 cumulative IPC: 0.92820 (Simulation time: 0 hr 0 min 22 sec) 
Heartbeat CPU  0 instructions:   20000000 cycles:   21561528 heartbeat IPC: 0.91595 cumulative IPC: 0.92758 (Simulation time: 0 hr 0 min 23 sec) 
Heartbeat CPU  0 instructions:   21000000 cycles:   22753945 heartbeat IPC: 0.83863 cumulative IPC: 0.92292 (Simulation time: 0 hr 0 min 24 sec) 
Heartbeat CPU  0 instructions:   22000003 cycles:   23881250 heartbeat IPC: 0.88707 cumulative IPC: 0.92122 (Simulation time: 0 hr 0 min 25 sec) 
Heartbeat CPU  0 instructions:   23000001 cycles:   24931321 heartbeat IPC: 0.95231 cumulative IPC: 0.92253 (Simulation time: 0 hr 0 min 27 sec) 
Heartbeat CPU  0 instructions:   24000000 cycles:   26048077 heartbeat IPC: 0.89545 cumulative IPC: 0.92137 (Simulation time: 0 hr 0 min 28 sec) 
Heartbeat CPU  0 instructions:   25000000 cycles:   26927319 heartbeat IPC: 1.13734 cumulative IPC: 0.92843 (Simulation time: 0 hr 0 min 29 sec) 
Heartbeat CPU  0 instructions:   26000000 cycles:   27897198 heartbeat IPC: 1.03106 cumulative IPC: 0.93199 (Simulation time: 0 hr 0 min 30 sec) 
Heartbeat CPU  0 instructions:   27000002 cycles:   28999784 heartbeat IPC: 0.90696 cumulative IPC: 0.93104 (Simulation time: 0 hr 0 min 31 sec) 
Heartbeat CPU  0 instructions:   28000000 cycles:   30120406 heartbeat IPC: 0.89236 cumulative IPC: 0.92960 (Simulation time: 0 hr 0 min 32 sec) 
Heartbeat CPU  0 instructions:   29000003 cycles:   31186383 heartbeat IPC: 0.93811 cumulative IPC: 0.92989 (Simulation time: 0 hr 0 min 33 sec) 
Heartbeat CPU  0 instructions:   30000002 cycles:   32278854 heartbeat IPC: 0.91536 cumulative IPC: 0.92940 (Simulation time: 0 hr 0 min 35 sec) 
Heartbeat CPU  0 instructions:   31000003 cycles:   33381194 heartbeat IPC: 0.90716 cumulative IPC: 0.92867 (Simulation time: 0 hr 0 min 36 sec) 
Heartbeat CPU  0 instructions:   32000000 cycles:   34480846 heartbeat IPC: 0.90938 cumulative IPC: 0.92805 (Simulation time: 0 hr 0 min 37 sec) 
Heartbeat CPU  0 instructions:   33000001 cycles:   35468056 heartbeat IPC: 1.01296 cumulative IPC: 0.93041 (Simulation time: 0 hr 0 min 38 sec) 
Heartbeat CPU  0 instructions:   34000001 cycles:   36605876 heartbeat IPC: 0.87887 cumulative IPC: 0.92881 (Simulation time: 0 hr 0 min 39 sec) 
Heartbeat CPU  0 instructions:   35000003 cycles:   37678083 heartbeat IPC: 0.93266 cumulative IPC: 0.92892 (Simulation time: 0 hr 0 min 41 sec) 
Heartbeat CPU  0 instructions:   36000000 cycles:   38869642 heartbeat IPC: 0.83923 cumulative IPC: 0.92617 (Simulation time: 0 hr 0 min 42 sec) 
Heartbeat CPU  0 instructions:   37000002 cycles:   39985602 heartbeat IPC: 0.89609 cumulative IPC: 0.92533 (Simulation time: 0 hr 0 min 43 sec) 
Heartbeat CPU  0 instructions:   38000000 cycles:   41035516 heartbeat IPC: 0.95246 cumulative IPC: 0.92603 (Simulation time: 0 hr 0 min 44 sec) 
Heartbeat CPU  0 instructions:   39000001 cycles:   41929036 heartbeat IPC: 1.11917 cumulative IPC: 0.93014 (Simulation time: 0 hr 0 min 45 sec) 
Heartbeat CPU  0 instructions:   40000000 cycles:   42886664 heartbeat IPC: 1.04425 cumulative IPC: 0.93269 (Simulation time: 0 hr 0 min 46 sec) 
Heartbeat CPU  0 instructions:   41000000 cycles:   43987929 heartbeat IPC: 0.90805 cumulative IPC: 0.93207 (Simulation time: 0 hr 0 min 48 sec) 
Heartbeat CPU  0 instructions:   42000000 cycles:   45112893 heartbeat IPC: 0.88892 cumulative IPC: 0.93100 (Simulation time: 0 hr 0 min 49 sec) 
Heartbeat CPU  0 instructions:   43000003 cycles:   46180465 heartbeat IPC: 0.93671 cumulative IPC: 0.93113 (Simulation time: 0 hr 0 min 50 sec) 
Heartbeat CPU  0 instructions:   44000000 cycles:   47300354 heartbeat IPC: 0.89294 cumulative IPC: 0.93023 (Simulation time: 0 hr 0 min 51 sec) 
Heartbeat CPU  0 instructions:   45000001 cycles:   48334061 heartbeat IPC: 0.96739 cumulative IPC: 0.93102 (Simulation time: 0 hr 0 min 52 sec) 
Heartbeat CPU  0 instructions:   46000000 cycles:   49420408 heartbeat IPC: 0.92052 cumulative IPC: 0.93079 (Simulation time: 0 hr 0 min 53 sec) 
Heartbeat CPU  0 instructions:   47000003 cycles:   50528643 heartbeat IPC: 0.90234 cumulative IPC: 0.93017 (Simulation time: 0 hr 0 min 55 sec) 
Heartbeat CPU  0 instructions:   48000000 cycles:   51497798 heartbeat IPC: 1.03182 cumulative IPC: 0.93208 (Simulation time: 0 hr 0 min 56 sec) 
Heartbeat CPU  0 instructions:   49000000 cycles:   52612276 heartbeat IPC: 0.89728 cumulative IPC: 0.93134 (Simulation time: 0 hr 0 min 57 sec) 
Heartbeat CPU  0 instructions:   50000000 cycles:   53696262 heartbeat IPC: 0.92252 cumulative IPC: 0.93116 (Simulation time: 0 hr 0 min 58 sec) 
Heartbeat CPU  0 instructions:   51000001 cycles:   54763593 heartbeat IPC: 0.93692 cumulative IPC: 0.93128 (Simulation time: 0 hr 0 min 59 sec) 
Heartbeat CPU  0 instructions:   52000000 cycles:   55893233 heartbeat IPC: 0.88524 cumulative IPC: 0.93035 (Simulation time: 0 hr 1 min 1 sec) 
Heartbeat CPU  0 instructions:   53000000 cycles:   56999703 heartbeat IPC: 0.90378 cumulative IPC: 0.92983 (Simulation time: 0 hr 1 min 2 sec) 
Heartbeat CPU  0 instructions:   54000001 cycles:   58196308 heartbeat IPC: 0.83570 cumulative IPC: 0.92789 (Simulation time: 0 hr 1 min 3 sec) 
Heartbeat CPU  0 instructions:   55000002 cycles:   59315929 heartbeat IPC: 0.89316 cumulative IPC: 0.92724 (Simulation time: 0 hr 1 min 4 sec) 
Heartbeat CPU  0 instructions:   56000000 cycles:   60381724 heartbeat IPC: 0.93826 cumulative IPC: 0.92743 (Simulation time: 0 hr 1 min 5 sec) 
Heartbeat CPU  0 instructions:   57000000 cycles:   61469733 heartbeat IPC: 0.91911 cumulative IPC: 0.92729 (Simulation time: 0 hr 1 min 7 sec) 
Heartbeat CPU  0 instructions:   58000001 cycles:   62558977 heartbeat IPC: 0.91807 cumulative IPC: 0.92713 (Simulation time: 0 hr 1 min 8 sec) 
Heartbeat CPU  0 instructions:   59000000 cycles:   63433698 heartbeat IPC: 1.14322 cumulative IPC: 0.93011 (Simulation time: 0 hr 1 min 9 sec) 
Heartbeat CPU  0 instructions:   60000000 cycles:   64552457 heartbeat IPC: 0.89385 cumulative IPC: 0.92948 (Simulation time: 0 hr 1 min 10 sec) 
Heartbeat CPU  0 instructions:   61000000 cycles:   65648632 heartbeat IPC: 0.91226 cumulative IPC: 0.92919 (Simulation time: 0 hr 1 min 11 sec) 
Heartbeat CPU  0 instructions:   62000000 cycles:   66726848 heartbeat IPC: 0.92746 cumulative IPC: 0.92916 (Simulation time: 0 hr 1 min 12 sec) 
Heartbeat CPU  0 instructions:   63000001 cycles:   67744135 heartbeat IPC: 0.98301 cumulative IPC: 0.92997 (Simulation time: 0 hr 1 min 13 sec) 
Heartbeat CPU  0 instructions:   64000000 cycles:   68866594 heartbeat IPC: 0.89090 cumulative IPC: 0.92933 (Simulation time: 0 hr 1 min 15 sec) 
Heartbeat CPU  0 instructions:   65000000 cycles:   69942018 heartbeat IPC: 0.92987 cumulative IPC: 0.92934 (Simulation time: 0 hr 1 min 16 sec) 
Heartbeat CPU  0 instructions:   66000000 cycles:   70998874 heartbeat IPC: 0.94620 cumulative IPC: 0.92959 (Simulation time: 0 hr 1 min 17 sec) 
Heartbeat CPU  0 instructions:   67000000 cycles:   72112409 heartbeat IPC: 0.89804 cumulative IPC: 0.92910 (Simulation time: 0 hr 1 min 18 sec) 
Heartbeat CPU  0 instructions:   68000000 cycles:   73200753 heartbeat IPC: 0.91883 cumulative IPC: 0.92895 (Simulation time: 0 hr 1 min 19 sec) 
Heartbeat CPU  0 instructions:   69000001 cycles:   74309369 heartbeat IPC: 0.90203 cumulative IPC: 0.92855 (Simulation time: 0 hr 1 min 21 sec) 
Heartbeat CPU  0 instructions:   70000000 cycles:   75282262 heartbeat IPC: 1.02786 cumulative IPC: 0.92983 (Simulation time: 0 hr 1 min 22 sec) 
Heartbeat CPU  0 instructions:   71000000 cycles:   76197242 heartbeat IPC: 1.09292 cumulative IPC: 0.93179 (Simulation time: 0 hr 1 min 23 sec) 
Heartbeat CPU  0 instructions:   72000000 cycles:   77296667 heartbeat IPC: 0.90957 cumulative IPC: 0.93148 (Simulation time: 0 hr 1 min 24 sec) 
Heartbeat CPU  0 instructions:   73000001 cycles:   78358716 heartbeat IPC: 0.94158 cumulative IPC: 0.93161 (Simulation time: 0 hr 1 min 25 sec) 
Heartbeat CPU  0 instructions:   74000000 cycles:   79425569 heartbeat IPC: 0.93734 cumulative IPC: 0.93169 (Simulation time: 0 hr 1 min 27 sec) 
Heartbeat CPU  0 instructions:   75000001 cycles:   80368100 heartbeat IPC: 1.06097 cumulative IPC: 0.93321 (Simulation time: 0 hr 1 min 28 sec) 
Heartbeat CPU  0 instructions:   76000000 cycles:   81356122 heartbeat IPC: 1.01212 cumulative IPC: 0.93416 (Simulation time: 0 hr 1 min 29 sec) 
Heartbeat CPU  0 instructions:   77000002 cycles:   82397778 heartbeat IPC: 0.96001 cumulative IPC: 0.93449 (Simulation time: 0 hr 1 min 30 sec) 
Heartbeat CPU  0 instructions:   78000000 cycles:   83348974 heartbeat IPC: 1.05131 cumulative IPC: 0.93582 (Simulation time: 0 hr 1 min 31 sec) 
Heartbeat CPU  0 instructions:   79000003 cycles:   84379587 heartbeat IPC: 0.97030 cumulative IPC: 0.93625 (Simulation time: 0 hr 1 min 33 sec) 
Heartbeat CPU  0 instructions:   80000000 cycles:   85445914 heartbeat IPC: 0.93780 cumulative IPC: 0.93626 (Simulation time: 0 hr 1 min 34 sec) 
Heartbeat CPU  0 instructions:   81000003 cycles:   86534308 heartbeat IPC: 0.91879 cumulative IPC: 0.93604 (Simulation time: 0 hr 1 min 35 sec) 
Heartbeat CPU  0 instructions:   82000000 cycles:   87609199 heartbeat IPC: 0.93032 cumulative IPC: 0.93597 (Simulation time: 0 hr 1 min 36 sec) 
Heartbeat CPU  0 instructions:   83000001 cycles:   88708400 heartbeat IPC: 0.90975 cumulative IPC: 0.93565 (Simulation time: 0 hr 1 min 37 sec) 
Heartbeat CPU  0 instructions:   84000000 cycles:   89747352 heartbeat IPC: 0.96251 cumulative IPC: 0.93596 (Simulation time: 0 hr 1 min 39 sec) 
Heartbeat CPU  0 instructions:   85000000 cycles:   90746930 heartbeat IPC: 1.00042 cumulative IPC: 0.93667 (Simulation time: 0 hr 1 min 40 sec) 
Heartbeat CPU  0 instructions:   86000000 cycles:   91832949 heartbeat IPC: 0.92079 cumulative IPC: 0.93648 (Simulation time: 0 hr 1 min 41 sec) 
Heartbeat CPU  0 instructions:   87000002 cycles:   92919708 heartbeat IPC: 0.92017 cumulative IPC: 0.93629 (Simulation time: 0 hr 1 min 42 sec) 
Heartbeat CPU  0 instructions:   88000000 cycles:   93989826 heartbeat IPC: 0.93447 cumulative IPC: 0.93627 (Simulation time: 0 hr 1 min 44 sec) 
Heartbeat CPU  0 instructions:   89000002 cycles:   95089035 heartbeat IPC: 0.90975 cumulative IPC: 0.93596 (Simulation time: 0 hr 1 min 45 sec) 
Heartbeat CPU  0 instructions:   90000002 cycles:   96176386 heartbeat IPC: 0.91967 cumulative IPC: 0.93578 (Simulation time: 0 hr 1 min 46 sec) 
Heartbeat CPU  0 instructions:   91000001 cycles:   97242854 heartbeat IPC: 0.93767 cumulative IPC: 0.93580 (Simulation time: 0 hr 1 min 47 sec) 
Heartbeat CPU  0 instructions:   92000000 cycles:   98361584 heartbeat IPC: 0.89387 cumulative IPC: 0.93532 (Simulation time: 0 hr 1 min 48 sec) 
Heartbeat CPU  0 instructions:   93000000 cycles:   99400876 heartbeat IPC: 0.96219 cumulative IPC: 0.93561 (Simulation time: 0 hr 1 min 49 sec) 
Heartbeat CPU  0 instructions:   94000001 cycles:  100519052 heartbeat IPC: 0.89431 cumulative IPC: 0.93515 (Simulation time: 0 hr 1 min 51 sec) 
Heartbeat CPU  0 instructions:   95000001 cycles:  101611020 heartbeat IPC: 0.91578 cumulative IPC: 0.93494 (Simulation time: 0 hr 1 min 52 sec) 
Heartbeat CPU  0 instructions:   96000000 cycles:  102700700 heartbeat IPC: 0.91770 cumulative IPC: 0.93476 (Simulation time: 0 hr 1 min 53 sec) 
Heartbeat CPU  0 instructions:   97000001 cycles:  103828895 heartbeat IPC: 0.88637 cumulative IPC: 0.93423 (Simulation time: 0 hr 1 min 54 sec) 
Heartbeat CPU  0 instructions:   98000000 cycles:  104927582 heartbeat IPC: 0.91018 cumulative IPC: 0.93398 (Simulation time: 0 hr 1 min 55 sec) 
Heartbeat CPU  0 instructions:   99000003 cycles:  105999090 heartbeat IPC: 0.93327 cumulative IPC: 0.93397 (Simulation time: 0 hr 1 min 57 sec) 
Heartbeat CPU  0 instructions:  100000000 cycles:  107084525 heartbeat IPC: 0.92129 cumulative IPC: 0.93384 (Simulation time: 0 hr 1 min 58 sec) 

Warmup complete CPU  0 instructions:  100000001 cycles:  107084527 (Simulation time: 0 hr 1 min 58 sec) 

Heartbeat CPU  0 instructions:  101000000 cycles:  109754986 heartbeat IPC: 0.37447 cumulative IPC: 0.37447 (Simulation time: 0 hr 2 min 0 sec) 
Heartbeat CPU  0 instructions:  102000000 cycles:  112405016 heartbeat IPC: 0.37735 cumulative IPC: 0.37591 (Simulation time: 0 hr 2 min 1 sec) 
Heartbeat CPU  0 instructions:  103000000 cycles:  115057826 heartbeat IPC: 0.37696 cumulative IPC: 0.37626 (Simulation time: 0 hr 2 min 3 sec) 
Heartbeat CPU  0 instructions:  104000000 cycles:  117621431 heartbeat IPC: 0.39008 cumulative IPC: 0.37962 (Simulation time: 0 hr 2 min 5 sec) 
Heartbeat CPU  0 instructions:  105000003 cycles:  120352031 heartbeat IPC: 0.36622 cumulative IPC: 0.37686 (Simulation time: 0 hr 2 min 7 sec) 
Heartbeat CPU  0 instructions:  106000001 cycles:  123041839 heartbeat IPC: 0.37177 cumulative IPC: 0.37600 (Simulation time: 0 hr 2 min 9 sec) 
Heartbeat CPU  0 instructions:  107000003 cycles:  125735588 heartbeat IPC: 0.37123 cumulative IPC: 0.37531 (Simulation time: 0 hr 2 min 11 sec) 
Heartbeat CPU  0 instructions:  108000000 cycles:  128551948 heartbeat IPC: 0.35507 cumulative IPC: 0.37266 (Simulation time: 0 hr 2 min 13 sec) 
Heartbeat CPU  0 instructions:  109000000 cycles:  131343124 heartbeat IPC: 0.35827 cumulative IPC: 0.37100 (Simulation time: 0 hr 2 min 14 sec) 
Heartbeat CPU  0 instructions:  110000002 cycles:  134017125 heartbeat IPC: 0.37397 cumulative IPC: 0.37130 (Simulation time: 0 hr 2 min 16 sec) 
Heartbeat CPU  0 instructions:  111000002 cycles:  136593029 heartbeat IPC: 0.38821 cumulative IPC: 0.37277 (Simulation time: 0 hr 2 min 18 sec) 
Heartbeat CPU  0 instructions:  112000000 cycles:  139342189 heartbeat IPC: 0.36375 cumulative IPC: 0.37200 (Simulation time: 0 hr 2 min 20 sec) 
Heartbeat CPU  0 instructions:  113000001 cycles:  142192733 heartbeat IPC: 0.35081 cumulative IPC: 0.37028 (Simulation time: 0 hr 2 min 22 sec) 
Heartbeat CPU  0 instructions:  114000000 cycles:  145012615 heartbeat IPC: 0.35462 cumulative IPC: 0.36912 (Simulation time: 0 hr 2 min 24 sec) 
Heartbeat CPU  0 instructions:  115000000 cycles:  147716299 heartbeat IPC: 0.36987 cumulative IPC: 0.36917 (Simulation time: 0 hr 2 min 26 sec) 
Heartbeat CPU  0 instructions:  116000000 cycles:  150476084 heartbeat IPC: 0.36235 cumulative IPC: 0.36874 (Simulation time: 0 hr 2 min 28 sec) 
Heartbeat CPU  0 instructions:  117000002 cycles:  153198310 heartbeat IPC: 0.36735 cumulative IPC: 0.36865 (Simulation time: 0 hr 2 min 30 sec) 
Heartbeat CPU  0 instructions:  118000000 cycles:  155939608 heartbeat IPC: 0.36479 cumulative IPC: 0.36844 (Simulation time: 0 hr 2 min 31 sec) 
Heartbeat CPU  0 instructions:  119000000 cycles:  158692162 heartbeat IPC: 0.36330 cumulative IPC: 0.36816 (Simulation time: 0 hr 2 min 33 sec) 
Heartbeat CPU  0 instructions:  120000000 cycles:  161518840 heartbeat IPC: 0.35377 cumulative IPC: 0.36742 (Simulation time: 0 hr 2 min 35 sec) 
Heartbeat CPU  0 instructions:  121000000 cycles:  164225663 heartbeat IPC: 0.36944 cumulative IPC: 0.36751 (Simulation time: 0 hr 2 min 37 sec) 
Heartbeat CPU  0 instructions:  122000001 cycles:  166969370 heartbeat IPC: 0.36447 cumulative IPC: 0.36737 (Simulation time: 0 hr 2 min 39 sec) 
Heartbeat CPU  0 instructions:  123000001 cycles:  169654276 heartbeat IPC: 0.37245 cumulative IPC: 0.36759 (Simulation time: 0 hr 2 min 41 sec) 
Heartbeat CPU  0 instructions:  124000000 cycles:  172290041 heartbeat IPC: 0.37940 cumulative IPC: 0.36807 (Simulation time: 0 hr 2 min 43 sec) 
Heartbeat CPU  0 instructions:  125000003 cycles:  174917763 heartbeat IPC: 0.38056 cumulative IPC: 0.36855 (Simulation time: 0 hr 2 min 45 sec) 
Heartbeat CPU  0 instructions:  126000000 cycles:  177568638 heartbeat IPC: 0.37723 cumulative IPC: 0.36888 (Simulation time: 0 hr 2 min 46 sec) 
Heartbeat CPU  0 instructions:  127000001 cycles:  180426138 heartbeat IPC: 0.34996 cumulative IPC: 0.36814 (Simulation time: 0 hr 2 min 48 sec) 
Heartbeat CPU  0 instructions:  128000000 cycles:  183130075 heartbeat IPC: 0.36983 cumulative IPC: 0.36820 (Simulation time: 0 hr 2 min 50 sec) 
Heartbeat CPU  0 instructions:  129000001 cycles:  185968344 heartbeat IPC: 0.35233 cumulative IPC: 0.36763 (Simulation time: 0 hr 2 min 52 sec) 
Heartbeat CPU  0 instructions:  130000000 cycles:  188813192 heartbeat IPC: 0.35151 cumulative IPC: 0.36707 (Simulation time: 0 hr 2 min 54 sec) 
Heartbeat CPU  0 instructions:  131000000 cycles:  191547080 heartbeat IPC: 0.36578 cumulative IPC: 0.36703 (Simulation time: 0 hr 2 min 56 sec) 
Heartbeat CPU  0 instructions:  132000000 cycles:  194292721 heartbeat IPC: 0.36421 cumulative IPC: 0.36694 (Simulation time: 0 hr 2 min 58 sec) 
Heartbeat CPU  0 instructions:  133000001 cycles:  196994103 heartbeat IPC: 0.37018 cumulative IPC: 0.36704 (Simulation time: 0 hr 3 min 0 sec) 
Heartbeat CPU  0 instructions:  134000000 cycles:  199740714 heartbeat IPC: 0.36408 cumulative IPC: 0.36695 (Simulation time: 0 hr 3 min 2 sec) 
Heartbeat CPU  0 instructions:  135000000 cycles:  202518547 heartbeat IPC: 0.35999 cumulative IPC: 0.36675 (Simulation time: 0 hr 3 min 3 sec) 
Heartbeat CPU  0 instructions:  136000000 cycles:  205288074 heartbeat IPC: 0.36107 cumulative IPC: 0.36659 (Simulation time: 0 hr 3 min 5 sec) 
Heartbeat CPU  0 instructions:  137000000 cycles:  208007214 heartbeat IPC: 0.36776 cumulative IPC: 0.36662 (Simulation time: 0 hr 3 min 7 sec) 
Heartbeat CPU  0 instructions:  138000000 cycles:  210606677 heartbeat IPC: 0.38469 cumulative IPC: 0.36707 (Simulation time: 0 hr 3 min 9 sec) 
Heartbeat CPU  0 instructions:  139000002 cycles:  213263034 heartbeat IPC: 0.37646 cumulative IPC: 0.36731 (Simulation time: 0 hr 3 min 11 sec) 
Heartbeat CPU  0 instructions:  140000000 cycles:  216001705 heartbeat IPC: 0.36514 cumulative IPC: 0.36725 (Simulation time: 0 hr 3 min 13 sec) 
Heartbeat CPU  0 instructions:  141000003 cycles:  218731021 heartbeat IPC: 0.36639 cumulative IPC: 0.36723 (Simulation time: 0 hr 3 min 15 sec) 
Heartbeat CPU  0 instructions:  142000000 cycles:  221398177 heartbeat IPC: 0.37493 cumulative IPC: 0.36741 (Simulation time: 0 hr 3 min 17 sec) 
Heartbeat CPU  0 instructions:  143000001 cycles:  224042741 heartbeat IPC: 0.37813 cumulative IPC: 0.36765 (Simulation time: 0 hr 3 min 18 sec) 
Heartbeat CPU  0 instructions:  144000000 cycles:  225562331 heartbeat IPC: 0.65807 cumulative IPC: 0.37138 (Simulation time: 0 hr 3 min 20 sec) 
Heartbeat CPU  0 instructions:  145000002 cycles:  226463105 heartbeat IPC: 1.11016 cumulative IPC: 0.37695 (Simulation time: 0 hr 3 min 22 sec) 
Heartbeat CPU  0 instructions:  146000000 cycles:  227046603 heartbeat IPC: 1.71380 cumulative IPC: 0.38345 (Simulation time: 0 hr 3 min 24 sec) 
Heartbeat CPU  0 instructions:  147000000 cycles:  227780472 heartbeat IPC: 1.36264 cumulative IPC: 0.38941 (Simulation time: 0 hr 3 min 26 sec) 
Heartbeat CPU  0 instructions:  148000000 cycles:  228615364 heartbeat IPC: 1.19776 cumulative IPC: 0.39496 (Simulation time: 0 hr 3 min 28 sec) 
Heartbeat CPU  0 instructions:  149000000 cycles:  230019813 heartbeat IPC: 0.71202 cumulative IPC: 0.39858 (Simulation time: 0 hr 3 min 30 sec) 
Heartbeat CPU  0 instructions:  150000000 cycles:  231436198 heartbeat IPC: 0.70602 cumulative IPC: 0.40209 (Simulation time: 0 hr 3 min 33 sec) 
Heartbeat CPU  0 instructions:  151000001 cycles:  232875843 heartbeat IPC: 0.69462 cumulative IPC: 0.40543 (Simulation time: 0 hr 3 min 35 sec) 
Heartbeat CPU  0 instructions:  152000000 cycles:  234526986 heartbeat IPC: 0.60564 cumulative IPC: 0.40803 (Simulation time: 0 hr 3 min 38 sec) 
Heartbeat CPU  0 instructions:  153000001 cycles:  236626702 heartbeat IPC: 0.47626 cumulative IPC: 0.40913 (Simulation time: 0 hr 3 min 41 sec) 
Heartbeat CPU  0 instructions:  154000002 cycles:  238727693 heartbeat IPC: 0.47597 cumulative IPC: 0.41020 (Simulation time: 0 hr 3 min 43 sec) 
Heartbeat CPU  0 instructions:  155000003 cycles:  239929060 heartbeat IPC: 0.83239 cumulative IPC: 0.41402 (Simulation time: 0 hr 3 min 46 sec) 
Heartbeat CPU  0 instructions:  156000000 cycles:  240727046 heartbeat IPC: 1.25315 cumulative IPC: 0.41903 (Simulation time: 0 hr 3 min 48 sec) 
Heartbeat CPU  0 instructions:  157000001 cycles:  241507705 heartbeat IPC: 1.28097 cumulative IPC: 0.42403 (Simulation time: 0 hr 3 min 49 sec) 
Heartbeat CPU  0 instructions:  158000003 cycles:  242322490 heartbeat IPC: 1.22732 cumulative IPC: 0.42887 (Simulation time: 0 hr 3 min 51 sec) 
Heartbeat CPU  0 instructions:  159000002 cycles:  243735766 heartbeat IPC: 0.70758 cumulative IPC: 0.43176 (Simulation time: 0 hr 3 min 54 sec) 
Heartbeat CPU  0 instructions:  160000000 cycles:  245129804 heartbeat IPC: 0.71734 cumulative IPC: 0.43464 (Simulation time: 0 hr 3 min 56 sec) 
Heartbeat CPU  0 instructions:  161000003 cycles:  246500095 heartbeat IPC: 0.72977 cumulative IPC: 0.43754 (Simulation time: 0 hr 3 min 59 sec) 
Heartbeat CPU  0 instructions:  162000000 cycles:  248446195 heartbeat IPC: 0.51385 cumulative IPC: 0.43859 (Simulation time: 0 hr 4 min 1 sec) 
Heartbeat CPU  0 instructions:  163000000 cycles:  250586668 heartbeat IPC: 0.46719 cumulative IPC: 0.43902 (Simulation time: 0 hr 4 min 4 sec) 
Heartbeat CPU  0 instructions:  164000000 cycles:  252741669 heartbeat IPC: 0.46404 cumulative IPC: 0.43939 (Simulation time: 0 hr 4 min 7 sec) 
Heartbeat CPU  0 instructions:  165000003 cycles:  255302475 heartbeat IPC: 0.39050 cumulative IPC: 0.43854 (Simulation time: 0 hr 4 min 9 sec) 
Heartbeat CPU  0 instructions:  166000000 cycles:  258131872 heartbeat IPC: 0.35343 cumulative IPC: 0.43695 (Simulation time: 0 hr 4 min 11 sec) 
Heartbeat CPU  0 instructions:  167000002 cycles:  260909945 heartbeat IPC: 0.35996 cumulative IPC: 0.43556 (Simulation time: 0 hr 4 min 13 sec) 
Heartbeat CPU  0 instructions:  168000000 cycles:  263678586 heartbeat IPC: 0.36119 cumulative IPC: 0.43424 (Simulation time: 0 hr 4 min 14 sec) 
Heartbeat CPU  0 instructions:  169000000 cycles:  266485078 heartbeat IPC: 0.35632 cumulative IPC: 0.43287 (Simulation time: 0 hr 4 min 16 sec) 
Heartbeat CPU  0 instructions:  170000003 cycles:  269266997 heartbeat IPC: 0.35947 cumulative IPC: 0.43161 (Simulation time: 0 hr 4 min 18 sec) 
Heartbeat CPU  0 instructions:  171000000 cycles:  271971023 heartbeat IPC: 0.36982 cumulative IPC: 0.43060 (Simulation time: 0 hr 4 min 20 sec) 
Heartbeat CPU  0 instructions:  172000000 cycles:  274744832 heartbeat IPC: 0.36052 cumulative IPC: 0.42944 (Simulation time: 0 hr 4 min 22 sec) 
Heartbeat CPU  0 instructions:  173000000 cycles:  277432646 heartbeat IPC: 0.37205 cumulative IPC: 0.42853 (Simulation time: 0 hr 4 min 24 sec) 
Heartbeat CPU  0 instructions:  174000000 cycles:  280207020 heartbeat IPC: 0.36044 cumulative IPC: 0.42744 (Simulation time: 0 hr 4 min 26 sec) 
Heartbeat CPU  0 instructions:  175000001 cycles:  282973414 heartbeat IPC: 0.36148 cumulative IPC: 0.42641 (Simulation time: 0 hr 4 min 28 sec) 
Heartbeat CPU  0 instructions:  176000000 cycles:  285751896 heartbeat IPC: 0.35991 cumulative IPC: 0.42537 (Simulation time: 0 hr 4 min 30 sec) 
Heartbeat CPU  0 instructions:  177000000 cycles:  288527133 heartbeat IPC: 0.36033 cumulative IPC: 0.42438 (Simulation time: 0 hr 4 min 31 sec) 
Heartbeat CPU  0 instructions:  178000001 cycles:  291244648 heartbeat IPC: 0.36798 cumulative IPC: 0.42354 (Simulation time: 0 hr 4 min 33 sec) 
Heartbeat CPU  0 instructions:  179000003 cycles:  293851938 heartbeat IPC: 0.38354 cumulative IPC: 0.42299 (Simulation time: 0 hr 4 min 35 sec) 
Heartbeat CPU  0 instructions:  180000000 cycles:  296594251 heartbeat IPC: 0.36465 cumulative IPC: 0.42214 (Simulation time: 0 hr 4 min 37 sec) 
Heartbeat CPU  0 instructions:  181000000 cycles:  299080443 heartbeat IPC: 0.40222 cumulative IPC: 0.42188 (Simulation time: 0 hr 4 min 39 sec) 
Heartbeat CPU  0 instructions:  182000000 cycles:  301761003 heartbeat IPC: 0.37306 cumulative IPC: 0.42121 (Simulation time: 0 hr 4 min 41 sec) 
Heartbeat CPU  0 instructions:  183000000 cycles:  304334883 heartbeat IPC: 0.38852 cumulative IPC: 0.42079 (Simulation time: 0 hr 4 min 43 sec) 
Heartbeat CPU  0 instructions:  184000000 cycles:  306807707 heartbeat IPC: 0.40440 cumulative IPC: 0.42058 (Simulation time: 0 hr 4 min 44 sec) 
Heartbeat CPU  0 instructions:  185000000 cycles:  309418688 heartbeat IPC: 0.38300 cumulative IPC: 0.42010 (Simulation time: 0 hr 4 min 46 sec) 
Heartbeat CPU  0 instructions:  186000000 cycles:  312118215 heartbeat IPC: 0.37044 cumulative IPC: 0.41944 (Simulation time: 0 hr 4 min 48 sec) 
Heartbeat CPU  0 instructions:  187000000 cycles:  314693121 heartbeat IPC: 0.38836 cumulative IPC: 0.41906 (Simulation time: 0 hr 4 min 50 sec) 
Heartbeat CPU  0 instructions:  188000000 cycles:  317080372 heartbeat IPC: 0.41889 cumulative IPC: 0.41906 (Simulation time: 0 hr 4 min 52 sec) 
Heartbeat CPU  0 instructions:  189000000 cycles:  319715360 heartbeat IPC: 0.37951 cumulative IPC: 0.41857 (Simulation time: 0 hr 4 min 54 sec) 
Heartbeat CPU  0 instructions:  190000000 cycles:  322264390 heartbeat IPC: 0.39231 cumulative IPC: 0.41825 (Simulation time: 0 hr 4 min 56 sec) 
Heartbeat CPU  0 instructions:  191000001 cycles:  324878513 heartbeat IPC: 0.38254 cumulative IPC: 0.41783 (Simulation time: 0 hr 4 min 58 sec) 
Heartbeat CPU  0 instructions:  192000000 cycles:  327464617 heartbeat IPC: 0.38668 cumulative IPC: 0.41746 (Simulation time: 0 hr 4 min 59 sec) 
Heartbeat CPU  0 instructions:  193000001 cycles:  330001916 heartbeat IPC: 0.39412 cumulative IPC: 0.41719 (Simulation time: 0 hr 5 min 1 sec) 
Heartbeat CPU  0 instructions:  194000000 cycles:  332053252 heartbeat IPC: 0.48749 cumulative IPC: 0.41784 (Simulation time: 0 hr 5 min 3 sec) 
Heartbeat CPU  0 instructions:  195000000 cycles:  334686156 heartbeat IPC: 0.37981 cumulative IPC: 0.41740 (Simulation time: 0 hr 5 min 5 sec) 
Heartbeat CPU  0 instructions:  196000000 cycles:  337305427 heartbeat IPC: 0.38179 cumulative IPC: 0.41699 (Simulation time: 0 hr 5 min 7 sec) 
Heartbeat CPU  0 instructions:  197000002 cycles:  339863512 heartbeat IPC: 0.39092 cumulative IPC: 0.41670 (Simulation time: 0 hr 5 min 8 sec) 
Heartbeat CPU  0 instructions:  198000000 cycles:  342380503 heartbeat IPC: 0.39730 cumulative IPC: 0.41650 (Simulation time: 0 hr 5 min 10 sec) 
Heartbeat CPU  0 instructions:  199000000 cycles:  344892789 heartbeat IPC: 0.39804 cumulative IPC: 0.41630 (Simulation time: 0 hr 5 min 12 sec) 
Heartbeat CPU  0 instructions:  200000000 cycles:  347461659 heartbeat IPC: 0.38928 cumulative IPC: 0.41601 (Simulation time: 0 hr 5 min 14 sec) 
Heartbeat CPU  0 instructions:  201000002 cycles:  350134191 heartbeat IPC: 0.37418 cumulative IPC: 0.41555 (Simulation time: 0 hr 5 min 16 sec) 
Heartbeat CPU  0 instructions:  202000001 cycles:  352832342 heartbeat IPC: 0.37062 cumulative IPC: 0.41506 (Simulation time: 0 hr 5 min 18 sec) 
Heartbeat CPU  0 instructions:  203000000 cycles:  355413781 heartbeat IPC: 0.38738 cumulative IPC: 0.41477 (Simulation time: 0 hr 5 min 20 sec) 
Heartbeat CPU  0 instructions:  204000000 cycles:  357941528 heartbeat IPC: 0.39561 cumulative IPC: 0.41458 (Simulation time: 0 hr 5 min 22 sec) 
Heartbeat CPU  0 instructions:  205000002 cycles:  360562288 heartbeat IPC: 0.38157 cumulative IPC: 0.41424 (Simulation time: 0 hr 5 min 23 sec) 
Heartbeat CPU  0 instructions:  206000001 cycles:  363089876 heartbeat IPC: 0.39563 cumulative IPC: 0.41405 (Simulation time: 0 hr 5 min 25 sec) 
Heartbeat CPU  0 instructions:  207000000 cycles:  365673090 heartbeat IPC: 0.38711 cumulative IPC: 0.41378 (Simulation time: 0 hr 5 min 27 sec) 
Heartbeat CPU  0 instructions:  208000000 cycles:  368484040 heartbeat IPC: 0.35575 cumulative IPC: 0.41316 (Simulation time: 0 hr 5 min 29 sec) 
Heartbeat CPU  0 instructions:  209000003 cycles:  371305663 heartbeat IPC: 0.35441 cumulative IPC: 0.41253 (Simulation time: 0 hr 5 min 31 sec) 
Heartbeat CPU  0 instructions:  210000000 cycles:  373902534 heartbeat IPC: 0.38508 cumulative IPC: 0.41227 (Simulation time: 0 hr 5 min 33 sec) 
Heartbeat CPU  0 instructions:  211000000 cycles:  376767176 heartbeat IPC: 0.34908 cumulative IPC: 0.41159 (Simulation time: 0 hr 5 min 35 sec) 
Heartbeat CPU  0 instructions:  212000000 cycles:  379463132 heartbeat IPC: 0.37093 cumulative IPC: 0.41119 (Simulation time: 0 hr 5 min 37 sec) 
Heartbeat CPU  0 instructions:  213000002 cycles:  382203749 heartbeat IPC: 0.36488 cumulative IPC: 0.41073 (Simulation time: 0 hr 5 min 38 sec) 
Heartbeat CPU  0 instructions:  214000000 cycles:  385006094 heartbeat IPC: 0.35684 cumulative IPC: 0.41019 (Simulation time: 0 hr 5 min 40 sec) 
Heartbeat CPU  0 instructions:  215000001 cycles:  387792341 heartbeat IPC: 0.35891 cumulative IPC: 0.40968 (Simulation time: 0 hr 5 min 42 sec) 
Heartbeat CPU  0 instructions:  216000000 cycles:  390553117 heartbeat IPC: 0.36222 cumulative IPC: 0.40922 (Simulation time: 0 hr 5 min 44 sec) 
Heartbeat CPU  0 instructions:  217000000 cycles:  393328447 heartbeat IPC: 0.36032 cumulative IPC: 0.40874 (Simulation time: 0 hr 5 min 46 sec) 
Heartbeat CPU  0 instructions:  218000002 cycles:  396112018 heartbeat IPC: 0.35925 cumulative IPC: 0.40827 (Simulation time: 0 hr 5 min 48 sec) 
Heartbeat CPU  0 instructions:  219000000 cycles:  398864950 heartbeat IPC: 0.36325 cumulative IPC: 0.40784 (Simulation time: 0 hr 5 min 50 sec) 
Heartbeat CPU  0 instructions:  220000000 cycles:  401602460 heartbeat IPC: 0.36530 cumulative IPC: 0.40745 (Simulation time: 0 hr 5 min 52 sec) 
Heartbeat CPU  0 instructions:  221000003 cycles:  404402777 heartbeat IPC: 0.35710 cumulative IPC: 0.40697 (Simulation time: 0 hr 5 min 54 sec) 
Heartbeat CPU  0 instructions:  222000003 cycles:  407178043 heartbeat IPC: 0.36033 cumulative IPC: 0.40654 (Simulation time: 0 hr 5 min 56 sec) 
Heartbeat CPU  0 instructions:  223000000 cycles:  409894508 heartbeat IPC: 0.36812 cumulative IPC: 0.40620 (Simulation time: 0 hr 5 min 57 sec) 
Heartbeat CPU  0 instructions:  224000000 cycles:  412597954 heartbeat IPC: 0.36990 cumulative IPC: 0.40587 (Simulation time: 0 hr 5 min 59 sec) 
Heartbeat CPU  0 instructions:  225000000 cycles:  415227362 heartbeat IPC: 0.38031 cumulative IPC: 0.40566 (Simulation time: 0 hr 6 min 1 sec) 
Heartbeat CPU  0 instructions:  226000002 cycles:  417964201 heartbeat IPC: 0.36539 cumulative IPC: 0.40530 (Simulation time: 0 hr 6 min 3 sec) 
Heartbeat CPU  0 instructions:  227000000 cycles:  420705122 heartbeat IPC: 0.36484 cumulative IPC: 0.40495 (Simulation time: 0 hr 6 min 5 sec) 
Heartbeat CPU  0 instructions:  228000000 cycles:  423394328 heartbeat IPC: 0.37186 cumulative IPC: 0.40467 (Simulation time: 0 hr 6 min 7 sec) 
Heartbeat CPU  0 instructions:  229000003 cycles:  426190861 heartbeat IPC: 0.35759 cumulative IPC: 0.40425 (Simulation time: 0 hr 6 min 9 sec) 
Heartbeat CPU  0 instructions:  230000003 cycles:  428979014 heartbeat IPC: 0.35866 cumulative IPC: 0.40386 (Simulation time: 0 hr 6 min 11 sec) 
Heartbeat CPU  0 instructions:  231000000 cycles:  431757124 heartbeat IPC: 0.35996 cumulative IPC: 0.40348 (Simulation time: 0 hr 6 min 13 sec) 
Heartbeat CPU  0 instructions:  232000000 cycles:  434464934 heartbeat IPC: 0.36930 cumulative IPC: 0.40320 (Simulation time: 0 hr 6 min 15 sec) 
Heartbeat CPU  0 instructions:  233000001 cycles:  437194111 heartbeat IPC: 0.36641 cumulative IPC: 0.40290 (Simulation time: 0 hr 6 min 16 sec) 
Heartbeat CPU  0 instructions:  234000000 cycles:  439922044 heartbeat IPC: 0.36658 cumulative IPC: 0.40260 (Simulation time: 0 hr 6 min 18 sec) 
Heartbeat CPU  0 instructions:  235000000 cycles:  442627266 heartbeat IPC: 0.36966 cumulative IPC: 0.40233 (Simulation time: 0 hr 6 min 20 sec) 
Heartbeat CPU  0 instructions:  236000000 cycles:  445101040 heartbeat IPC: 0.40424 cumulative IPC: 0.40235 (Simulation time: 0 hr 6 min 22 sec) 
Heartbeat CPU  0 instructions:  237000001 cycles:  447438649 heartbeat IPC: 0.42779 cumulative IPC: 0.40252 (Simulation time: 0 hr 6 min 24 sec) 
Heartbeat CPU  0 instructions:  238000000 cycles:  449992945 heartbeat IPC: 0.39150 cumulative IPC: 0.40244 (Simulation time: 0 hr 6 min 26 sec) 
Heartbeat CPU  0 instructions:  239000000 cycles:  452748580 heartbeat IPC: 0.36289 cumulative IPC: 0.40212 (Simulation time: 0 hr 6 min 28 sec) 
Heartbeat CPU  0 instructions:  240000000 cycles:  455416166 heartbeat IPC: 0.37487 cumulative IPC: 0.40192 (Simulation time: 0 hr 6 min 29 sec) 
Heartbeat CPU  0 instructions:  241000000 cycles:  458110203 heartbeat IPC: 0.37119 cumulative IPC: 0.40168 (Simulation time: 0 hr 6 min 31 sec) 
Heartbeat CPU  0 instructions:  242000003 cycles:  460933643 heartbeat IPC: 0.35418 cumulative IPC: 0.40130 (Simulation time: 0 hr 6 min 33 sec) 
Heartbeat CPU  0 instructions:  243000001 cycles:  463702375 heartbeat IPC: 0.36118 cumulative IPC: 0.40099 (Simulation time: 0 hr 6 min 35 sec) 
Heartbeat CPU  0 instructions:  244000000 cycles:  466309398 heartbeat IPC: 0.38358 cumulative IPC: 0.40086 (Simulation time: 0 hr 6 min 37 sec) 
Heartbeat CPU  0 instructions:  245000000 cycles:  468854182 heartbeat IPC: 0.39296 cumulative IPC: 0.40081 (Simulation time: 0 hr 6 min 39 sec) 
Heartbeat CPU  0 instructions:  246000001 cycles:  471588446 heartbeat IPC: 0.36573 cumulative IPC: 0.40054 (Simulation time: 0 hr 6 min 41 sec) 
Heartbeat CPU  0 instructions:  247000002 cycles:  474232012 heartbeat IPC: 0.37828 cumulative IPC: 0.40038 (Simulation time: 0 hr 6 min 43 sec) 
Heartbeat CPU  0 instructions:  248000000 cycles:  476818968 heartbeat IPC: 0.38655 cumulative IPC: 0.40029 (Simulation time: 0 hr 6 min 45 sec) 
Heartbeat CPU  0 instructions:  249000003 cycles:  479369110 heartbeat IPC: 0.39214 cumulative IPC: 0.40023 (Simulation time: 0 hr 6 min 47 sec) 
Heartbeat CPU  0 instructions:  250000000 cycles:  481765987 heartbeat IPC: 0.41721 cumulative IPC: 0.40034 (Simulation time: 0 hr 6 min 48 sec) 
Heartbeat CPU  0 instructions:  251000002 cycles:  484479527 heartbeat IPC: 0.36852 cumulative IPC: 0.40011 (Simulation time: 0 hr 6 min 50 sec) 
Heartbeat CPU  0 instructions:  252000000 cycles:  487184627 heartbeat IPC: 0.36967 cumulative IPC: 0.39989 (Simulation time: 0 hr 6 min 52 sec) 
Heartbeat CPU  0 instructions:  253000000 cycles:  490001212 heartbeat IPC: 0.35504 cumulative IPC: 0.39956 (Simulation time: 0 hr 6 min 54 sec) 
Heartbeat CPU  0 instructions:  254000002 cycles:  492721557 heartbeat IPC: 0.36760 cumulative IPC: 0.39934 (Simulation time: 0 hr 6 min 56 sec) 
Heartbeat CPU  0 instructions:  255000001 cycles:  495451087 heartbeat IPC: 0.36636 cumulative IPC: 0.39911 (Simulation time: 0 hr 6 min 58 sec) 
Heartbeat CPU  0 instructions:  256000000 cycles:  498176838 heartbeat IPC: 0.36687 cumulative IPC: 0.39888 (Simulation time: 0 hr 7 min 0 sec) 
Heartbeat CPU  0 instructions:  257000000 cycles:  500893085 heartbeat IPC: 0.36816 cumulative IPC: 0.39867 (Simulation time: 0 hr 7 min 2 sec) 
Heartbeat CPU  0 instructions:  258000000 cycles:  503596965 heartbeat IPC: 0.36984 cumulative IPC: 0.39847 (Simulation time: 0 hr 7 min 4 sec) 
Heartbeat CPU  0 instructions:  259000000 cycles:  506081494 heartbeat IPC: 0.40249 cumulative IPC: 0.39850 (Simulation time: 0 hr 7 min 5 sec) 
Heartbeat CPU  0 instructions:  260000000 cycles:  508748218 heartbeat IPC: 0.37499 cumulative IPC: 0.39834 (Simulation time: 0 hr 7 min 7 sec) 
Heartbeat CPU  0 instructions:  261000000 cycles:  511452275 heartbeat IPC: 0.36981 cumulative IPC: 0.39815 (Simulation time: 0 hr 7 min 9 sec) 
Heartbeat CPU  0 instructions:  262000000 cycles:  514175188 heartbeat IPC: 0.36725 cumulative IPC: 0.39795 (Simulation time: 0 hr 7 min 11 sec) 
Heartbeat CPU  0 instructions:  263000001 cycles:  516864855 heartbeat IPC: 0.37179 cumulative IPC: 0.39777 (Simulation time: 0 hr 7 min 13 sec) 
Heartbeat CPU  0 instructions:  264000000 cycles:  519494048 heartbeat IPC: 0.38034 cumulative IPC: 0.39766 (Simulation time: 0 hr 7 min 15 sec) 
Heartbeat CPU  0 instructions:  265000002 cycles:  522127227 heartbeat IPC: 0.37977 cumulative IPC: 0.39755 (Simulation time: 0 hr 7 min 17 sec) 
Heartbeat CPU  0 instructions:  266000002 cycles:  524774711 heartbeat IPC: 0.37772 cumulative IPC: 0.39742 (Simulation time: 0 hr 7 min 19 sec) 
Heartbeat CPU  0 instructions:  267000003 cycles:  527495958 heartbeat IPC: 0.36748 cumulative IPC: 0.39723 (Simulation time: 0 hr 7 min 20 sec) 
Heartbeat CPU  0 instructions:  268000000 cycles:  530231833 heartbeat IPC: 0.36551 cumulative IPC: 0.39702 (Simulation time: 0 hr 7 min 22 sec) 
Heartbeat CPU  0 instructions:  269000001 cycles:  532959627 heartbeat IPC: 0.36660 cumulative IPC: 0.39683 (Simulation time: 0 hr 7 min 24 sec) 
Heartbeat CPU  0 instructions:  270000001 cycles:  535659575 heartbeat IPC: 0.37038 cumulative IPC: 0.39666 (Simulation time: 0 hr 7 min 26 sec) 
Heartbeat CPU  0 instructions:  271000003 cycles:  538348802 heartbeat IPC: 0.37185 cumulative IPC: 0.39651 (Simulation time: 0 hr 7 min 28 sec) 
Heartbeat CPU  0 instructions:  272000000 cycles:  541071323 heartbeat IPC: 0.36731 cumulative IPC: 0.39633 (Simulation time: 0 hr 7 min 30 sec) 
Heartbeat CPU  0 instructions:  273000001 cycles:  543755421 heartbeat IPC: 0.37257 cumulative IPC: 0.39618 (Simulation time: 0 hr 7 min 32 sec) 
Heartbeat CPU  0 instructions:  274000003 cycles:  546534212 heartbeat IPC: 0.35987 cumulative IPC: 0.39595 (Simulation time: 0 hr 7 min 34 sec) 
Heartbeat CPU  0 instructions:  275000002 cycles:  549255824 heartbeat IPC: 0.36743 cumulative IPC: 0.39577 (Simulation time: 0 hr 7 min 35 sec) 
Heartbeat CPU  0 instructions:  276000000 cycles:  551914735 heartbeat IPC: 0.37609 cumulative IPC: 0.39566 (Simulation time: 0 hr 7 min 37 sec) 
Heartbeat CPU  0 instructions:  277000000 cycles:  554479067 heartbeat IPC: 0.38997 cumulative IPC: 0.39562 (Simulation time: 0 hr 7 min 39 sec) 
Heartbeat CPU  0 instructions:  278000001 cycles:  556968832 heartbeat IPC: 0.40164 cumulative IPC: 0.39566 (Simulation time: 0 hr 7 min 41 sec) 
Heartbeat CPU  0 instructions:  279000002 cycles:  559538447 heartbeat IPC: 0.38916 cumulative IPC: 0.39562 (Simulation time: 0 hr 7 min 43 sec) 
Heartbeat CPU  0 instructions:  280000000 cycles:  562238932 heartbeat IPC: 0.37030 cumulative IPC: 0.39547 (Simulation time: 0 hr 7 min 45 sec) 
Heartbeat CPU  0 instructions:  281000002 cycles:  564959072 heartbeat IPC: 0.36763 cumulative IPC: 0.39530 (Simulation time: 0 hr 7 min 47 sec) 
Heartbeat CPU  0 instructions:  282000003 cycles:  567595174 heartbeat IPC: 0.37935 cumulative IPC: 0.39521 (Simulation time: 0 hr 7 min 49 sec) 
Heartbeat CPU  0 instructions:  283000001 cycles:  570055118 heartbeat IPC: 0.40651 cumulative IPC: 0.39527 (Simulation time: 0 hr 7 min 51 sec) 
Heartbeat CPU  0 instructions:  284000000 cycles:  572662091 heartbeat IPC: 0.38359 cumulative IPC: 0.39521 (Simulation time: 0 hr 7 min 52 sec) 
Heartbeat CPU  0 instructions:  285000001 cycles:  575331534 heartbeat IPC: 0.37461 cumulative IPC: 0.39509 (Simulation time: 0 hr 7 min 54 sec) 
Heartbeat CPU  0 instructions:  286000000 cycles:  577814619 heartbeat IPC: 0.40272 cumulative IPC: 0.39513 (Simulation time: 0 hr 7 min 56 sec) 
Heartbeat CPU  0 instructions:  287000002 cycles:  580377415 heartbeat IPC: 0.39020 cumulative IPC: 0.39510 (Simulation time: 0 hr 7 min 58 sec) 
Heartbeat CPU  0 instructions:  288000000 cycles:  583086342 heartbeat IPC: 0.36915 cumulative IPC: 0.39496 (Simulation time: 0 hr 8 min 0 sec) 
Heartbeat CPU  0 instructions:  289000000 cycles:  585836167 heartbeat IPC: 0.36366 cumulative IPC: 0.39478 (Simulation time: 0 hr 8 min 2 sec) 
Heartbeat CPU  0 instructions:  290000002 cycles:  588423277 heartbeat IPC: 0.38653 cumulative IPC: 0.39473 (Simulation time: 0 hr 8 min 4 sec) 
Heartbeat CPU  0 instructions:  291000000 cycles:  591304356 heartbeat IPC: 0.34709 cumulative IPC: 0.39445 (Simulation time: 0 hr 8 min 6 sec) 
Heartbeat CPU  0 instructions:  292000000 cycles:  594112685 heartbeat IPC: 0.35608 cumulative IPC: 0.39423 (Simulation time: 0 hr 8 min 7 sec) 
Heartbeat CPU  0 instructions:  293000000 cycles:  596891223 heartbeat IPC: 0.35990 cumulative IPC: 0.39403 (Simulation time: 0 hr 8 min 9 sec) 
Heartbeat CPU  0 instructions:  294000002 cycles:  599635723 heartbeat IPC: 0.36437 cumulative IPC: 0.39387 (Simulation time: 0 hr 8 min 11 sec) 
Heartbeat CPU  0 instructions:  295000001 cycles:  602329837 heartbeat IPC: 0.37118 cumulative IPC: 0.39374 (Simulation time: 0 hr 8 min 13 sec) 
Heartbeat CPU  0 instructions:  296000000 cycles:  605086196 heartbeat IPC: 0.36280 cumulative IPC: 0.39357 (Simulation time: 0 hr 8 min 15 sec) 
Heartbeat CPU  0 instructions:  297000000 cycles:  607810104 heartbeat IPC: 0.36712 cumulative IPC: 0.39343 (Simulation time: 0 hr 8 min 17 sec) 
Heartbeat CPU  0 instructions:  298000000 cycles:  610491525 heartbeat IPC: 0.37294 cumulative IPC: 0.39332 (Simulation time: 0 hr 8 min 19 sec) 
Heartbeat CPU  0 instructions:  299000000 cycles:  613281947 heartbeat IPC: 0.35837 cumulative IPC: 0.39313 (Simulation time: 0 hr 8 min 21 sec) 
Heartbeat CPU  0 instructions:  300000000 cycles:  615973205 heartbeat IPC: 0.37157 cumulative IPC: 0.39301 (Simulation time: 0 hr 8 min 22 sec) 
Heartbeat CPU  0 instructions:  301000000 cycles:  618740746 heartbeat IPC: 0.36133 cumulative IPC: 0.39284 (Simulation time: 0 hr 8 min 24 sec) 
Heartbeat CPU  0 instructions:  302000000 cycles:  621480271 heartbeat IPC: 0.36503 cumulative IPC: 0.39269 (Simulation time: 0 hr 8 min 26 sec) 
Heartbeat CPU  0 instructions:  303000000 cycles:  624349604 heartbeat IPC: 0.34851 cumulative IPC: 0.39245 (Simulation time: 0 hr 8 min 28 sec) 
Heartbeat CPU  0 instructions:  304000000 cycles:  627063275 heartbeat IPC: 0.36850 cumulative IPC: 0.39232 (Simulation time: 0 hr 8 min 30 sec) 
Heartbeat CPU  0 instructions:  305000002 cycles:  629683767 heartbeat IPC: 0.38161 cumulative IPC: 0.39227 (Simulation time: 0 hr 8 min 32 sec) 
Heartbeat CPU  0 instructions:  306000000 cycles:  632570012 heartbeat IPC: 0.34647 cumulative IPC: 0.39202 (Simulation time: 0 hr 8 min 34 sec) 
Heartbeat CPU  0 instructions:  307000000 cycles:  635289587 heartbeat IPC: 0.36770 cumulative IPC: 0.39189 (Simulation time: 0 hr 8 min 36 sec) 
Heartbeat CPU  0 instructions:  308000000 cycles:  638003365 heartbeat IPC: 0.36849 cumulative IPC: 0.39177 (Simulation time: 0 hr 8 min 38 sec) 
Heartbeat CPU  0 instructions:  309000000 cycles:  640682161 heartbeat IPC: 0.37330 cumulative IPC: 0.39168 (Simulation time: 0 hr 8 min 40 sec) 
Heartbeat CPU  0 instructions:  310000000 cycles:  643106404 heartbeat IPC: 0.41250 cumulative IPC: 0.39178 (Simulation time: 0 hr 8 min 41 sec) 
Heartbeat CPU  0 instructions:  311000000 cycles:  644992609 heartbeat IPC: 0.53017 cumulative IPC: 0.39226 (Simulation time: 0 hr 8 min 43 sec) 
Heartbeat CPU  0 instructions:  312000000 cycles:  647622822 heartbeat IPC: 0.38020 cumulative IPC: 0.39220 (Simulation time: 0 hr 8 min 45 sec) 
Heartbeat CPU  0 instructions:  313000002 cycles:  650364262 heartbeat IPC: 0.36477 cumulative IPC: 0.39206 (Simulation time: 0 hr 8 min 47 sec) 
Heartbeat CPU  0 instructions:  314000002 cycles:  653090600 heartbeat IPC: 0.36679 cumulative IPC: 0.39194 (Simulation time: 0 hr 8 min 48 sec) 
Heartbeat CPU  0 instructions:  315000001 cycles:  655848675 heartbeat IPC: 0.36257 cumulative IPC: 0.39179 (Simulation time: 0 hr 8 min 50 sec) 
Heartbeat CPU  0 instructions:  316000000 cycles:  658650235 heartbeat IPC: 0.35694 cumulative IPC: 0.39161 (Simulation time: 0 hr 8 min 52 sec) 
Heartbeat CPU  0 instructions:  317000003 cycles:  661397776 heartbeat IPC: 0.36396 cumulative IPC: 0.39148 (Simulation time: 0 hr 8 min 54 sec) 
Heartbeat CPU  0 instructions:  318000000 cycles:  664125262 heartbeat IPC: 0.36664 cumulative IPC: 0.39135 (Simulation time: 0 hr 8 min 56 sec) 
Heartbeat CPU  0 instructions:  319000000 cycles:  666789910 heartbeat IPC: 0.37528 cumulative IPC: 0.39128 (Simulation time: 0 hr 8 min 58 sec) 
Heartbeat CPU  0 instructions:  320000000 cycles:  669463064 heartbeat IPC: 0.37409 cumulative IPC: 0.39120 (Simulation time: 0 hr 9 min 0 sec) 
Heartbeat CPU  0 instructions:  321000003 cycles:  672185048 heartbeat IPC: 0.36738 cumulative IPC: 0.39108 (Simulation time: 0 hr 9 min 2 sec) 
Heartbeat CPU  0 instructions:  322000002 cycles:  674803510 heartbeat IPC: 0.38190 cumulative IPC: 0.39104 (Simulation time: 0 hr 9 min 3 sec) 
Heartbeat CPU  0 instructions:  323000000 cycles:  677427221 heartbeat IPC: 0.38114 cumulative IPC: 0.39099 (Simulation time: 0 hr 9 min 5 sec) 
Heartbeat CPU  0 instructions:  324000000 cycles:  679494864 heartbeat IPC: 0.48364 cumulative IPC: 0.39133 (Simulation time: 0 hr 9 min 7 sec) 
Heartbeat CPU  0 instructions:  325000001 cycles:  681893581 heartbeat IPC: 0.41689 cumulative IPC: 0.39143 (Simulation time: 0 hr 9 min 9 sec) 
Heartbeat CPU  0 instructions:  326000000 cycles:  684358484 heartbeat IPC: 0.40570 cumulative IPC: 0.39150 (Simulation time: 0 hr 9 min 11 sec) 
Heartbeat CPU  0 instructions:  327000000 cycles:  686783676 heartbeat IPC: 0.41234 cumulative IPC: 0.39158 (Simulation time: 0 hr 9 min 12 sec) 
Heartbeat CPU  0 instructions:  328000000 cycles:  689462613 heartbeat IPC: 0.37328 cumulative IPC: 0.39150 (Simulation time: 0 hr 9 min 14 sec) 
Heartbeat CPU  0 instructions:  329000003 cycles:  691961276 heartbeat IPC: 0.40022 cumulative IPC: 0.39154 (Simulation time: 0 hr 9 min 16 sec) 
Heartbeat CPU  0 instructions:  330000001 cycles:  694307476 heartbeat IPC: 0.42622 cumulative IPC: 0.39167 (Simulation time: 0 hr 9 min 18 sec) 
Heartbeat CPU  0 instructions:  331000001 cycles:  696676934 heartbeat IPC: 0.42204 cumulative IPC: 0.39180 (Simulation time: 0 hr 9 min 20 sec) 
Heartbeat CPU  0 instructions:  332000000 cycles:  699268494 heartbeat IPC: 0.38587 cumulative IPC: 0.39177 (Simulation time: 0 hr 9 min 22 sec) 
Heartbeat CPU  0 instructions:  333000000 cycles:  701845839 heartbeat IPC: 0.38800 cumulative IPC: 0.39175 (Simulation time: 0 hr 9 min 24 sec) 
Heartbeat CPU  0 instructions:  334000001 cycles:  704388672 heartbeat IPC: 0.39326 cumulative IPC: 0.39176 (Simulation time: 0 hr 9 min 25 sec) 
Heartbeat CPU  0 instructions:  335000000 cycles:  706989545 heartbeat IPC: 0.38449 cumulative IPC: 0.39173 (Simulation time: 0 hr 9 min 27 sec) 
Heartbeat CPU  0 instructions:  336000000 cycles:  709389444 heartbeat IPC: 0.41668 cumulative IPC: 0.39183 (Simulation time: 0 hr 9 min 29 sec) 
Heartbeat CPU  0 instructions:  337000000 cycles:  711778438 heartbeat IPC: 0.41859 cumulative IPC: 0.39193 (Simulation time: 0 hr 9 min 31 sec) 
Heartbeat CPU  0 instructions:  338000001 cycles:  714255949 heartbeat IPC: 0.40363 cumulative IPC: 0.39198 (Simulation time: 0 hr 9 min 33 sec) 
Heartbeat CPU  0 instructions:  339000000 cycles:  716723111 heartbeat IPC: 0.40532 cumulative IPC: 0.39204 (Simulation time: 0 hr 9 min 35 sec) 
Heartbeat CPU  0 instructions:  340000000 cycles:  719349964 heartbeat IPC: 0.38068 cumulative IPC: 0.39199 (Simulation time: 0 hr 9 min 36 sec) 
Heartbeat CPU  0 instructions:  341000002 cycles:  721956484 heartbeat IPC: 0.38365 cumulative IPC: 0.39195 (Simulation time: 0 hr 9 min 38 sec) 
Heartbeat CPU  0 instructions:  342000001 cycles:  724713149 heartbeat IPC: 0.36276 cumulative IPC: 0.39182 (Simulation time: 0 hr 9 min 40 sec) 
Heartbeat CPU  0 instructions:  343000003 cycles:  727304420 heartbeat IPC: 0.38591 cumulative IPC: 0.39180 (Simulation time: 0 hr 9 min 42 sec) 
Heartbeat CPU  0 instructions:  344000000 cycles:  729832411 heartbeat IPC: 0.39557 cumulative IPC: 0.39181 (Simulation time: 0 hr 9 min 44 sec) 
Heartbeat CPU  0 instructions:  345000003 cycles:  732623020 heartbeat IPC: 0.35835 cumulative IPC: 0.39166 (Simulation time: 0 hr 9 min 46 sec) 
Heartbeat CPU  0 instructions:  346000001 cycles:  735341864 heartbeat IPC: 0.36780 cumulative IPC: 0.39156 (Simulation time: 0 hr 9 min 48 sec) 
Heartbeat CPU  0 instructions:  347000002 cycles:  737833759 heartbeat IPC: 0.40130 cumulative IPC: 0.39160 (Simulation time: 0 hr 9 min 49 sec) 
Heartbeat CPU  0 instructions:  348000000 cycles:  740202011 heartbeat IPC: 0.42225 cumulative IPC: 0.39171 (Simulation time: 0 hr 9 min 51 sec) 
Heartbeat CPU  0 instructions:  349000000 cycles:  742833037 heartbeat IPC: 0.38008 cumulative IPC: 0.39166 (Simulation time: 0 hr 9 min 53 sec) 
Heartbeat CPU  0 instructions:  350000001 cycles:  745344560 heartbeat IPC: 0.39817 cumulative IPC: 0.39169 (Simulation time: 0 hr 9 min 55 sec) 
Heartbeat CPU  0 instructions:  351000000 cycles:  748139225 heartbeat IPC: 0.35782 cumulative IPC: 0.39154 (Simulation time: 0 hr 9 min 57 sec) 
Heartbeat CPU  0 instructions:  352000000 cycles:  750808396 heartbeat IPC: 0.37465 cumulative IPC: 0.39147 (Simulation time: 0 hr 9 min 59 sec) 
Heartbeat CPU  0 instructions:  353000002 cycles:  753372081 heartbeat IPC: 0.39006 cumulative IPC: 0.39147 (Simulation time: 0 hr 10 min 1 sec) 
Heartbeat CPU  0 instructions:  354000000 cycles:  756020808 heartbeat IPC: 0.37754 cumulative IPC: 0.39141 (Simulation time: 0 hr 10 min 3 sec) 
Heartbeat CPU  0 instructions:  355000003 cycles:  758757047 heartbeat IPC: 0.36547 cumulative IPC: 0.39130 (Simulation time: 0 hr 10 min 4 sec) 
Heartbeat CPU  0 instructions:  356000000 cycles:  761486946 heartbeat IPC: 0.36631 cumulative IPC: 0.39120 (Simulation time: 0 hr 10 min 6 sec) 
Heartbeat CPU  0 instructions:  357000000 cycles:  764158037 heartbeat IPC: 0.37438 cumulative IPC: 0.39113 (Simulation time: 0 hr 10 min 8 sec) 
Heartbeat CPU  0 instructions:  358000000 cycles:  766856801 heartbeat IPC: 0.37054 cumulative IPC: 0.39104 (Simulation time: 0 hr 10 min 10 sec) 
Heartbeat CPU  0 instructions:  359000000 cycles:  769539702 heartbeat IPC: 0.37273 cumulative IPC: 0.39097 (Simulation time: 0 hr 10 min 12 sec) 
Heartbeat CPU  0 instructions:  360000000 cycles:  772211046 heartbeat IPC: 0.37434 cumulative IPC: 0.39090 (Simulation time: 0 hr 10 min 14 sec) 
Heartbeat CPU  0 instructions:  361000000 cycles:  774737966 heartbeat IPC: 0.39574 cumulative IPC: 0.39092 (Simulation time: 0 hr 10 min 16 sec) 
Heartbeat CPU  0 instructions:  362000000 cycles:  777631405 heartbeat IPC: 0.34561 cumulative IPC: 0.39073 (Simulation time: 0 hr 10 min 18 sec) 
Heartbeat CPU  0 instructions:  363000000 cycles:  780410960 heartbeat IPC: 0.35977 cumulative IPC: 0.39060 (Simulation time: 0 hr 10 min 19 sec) 
Heartbeat CPU  0 instructions:  364000000 cycles:  782810335 heartbeat IPC: 0.41678 cumulative IPC: 0.39069 (Simulation time: 0 hr 10 min 21 sec) 
Heartbeat CPU  0 instructions:  365000000 cycles:  785219840 heartbeat IPC: 0.41502 cumulative IPC: 0.39078 (Simulation time: 0 hr 10 min 23 sec) 
Heartbeat CPU  0 instructions:  366000002 cycles:  787072734 heartbeat IPC: 0.53970 cumulative IPC: 0.39118 (Simulation time: 0 hr 10 min 25 sec) 
Heartbeat CPU  0 instructions:  367000000 cycles:  788824640 heartbeat IPC: 0.57081 cumulative IPC: 0.39164 (Simulation time: 0 hr 10 min 26 sec) 
Heartbeat CPU  0 instructions:  368000000 cycles:  791496989 heartbeat IPC: 0.37420 cumulative IPC: 0.39158 (Simulation time: 0 hr 10 min 28 sec) 
Heartbeat CPU  0 instructions:  369000000 cycles:  794279782 heartbeat IPC: 0.35935 cumulative IPC: 0.39145 (Simulation time: 0 hr 10 min 30 sec) 
Heartbeat CPU  0 instructions:  370000000 cycles:  797127450 heartbeat IPC: 0.35116 cumulative IPC: 0.39128 (Simulation time: 0 hr 10 min 32 sec) 
Heartbeat CPU  0 instructions:  371000003 cycles:  799786409 heartbeat IPC: 0.37609 cumulative IPC: 0.39122 (Simulation time: 0 hr 10 min 34 sec) 
Heartbeat CPU  0 instructions:  372000000 cycles:  802443070 heartbeat IPC: 0.37641 cumulative IPC: 0.39117 (Simulation time: 0 hr 10 min 35 sec) 
Heartbeat CPU  0 instructions:  373000002 cycles:  805104069 heartbeat IPC: 0.37580 cumulative IPC: 0.39111 (Simulation time: 0 hr 10 min 37 sec) 
Heartbeat CPU  0 instructions:  374000001 cycles:  807893157 heartbeat IPC: 0.35854 cumulative IPC: 0.39098 (Simulation time: 0 hr 10 min 39 sec) 
Heartbeat CPU  0 instructions:  375000000 cycles:  810658638 heartbeat IPC: 0.36160 cumulative IPC: 0.39086 (Simulation time: 0 hr 10 min 41 sec) 
Heartbeat CPU  0 instructions:  376000000 cycles:  813427939 heartbeat IPC: 0.36110 cumulative IPC: 0.39074 (Simulation time: 0 hr 10 min 43 sec) 
Heartbeat CPU  0 instructions:  377000002 cycles:  816190768 heartbeat IPC: 0.36195 cumulative IPC: 0.39063 (Simulation time: 0 hr 10 min 45 sec) 
Heartbeat CPU  0 instructions:  378000001 cycles:  818950720 heartbeat IPC: 0.36232 cumulative IPC: 0.39052 (Simulation time: 0 hr 10 min 47 sec) 
Heartbeat CPU  0 instructions:  379000000 cycles:  821799240 heartbeat IPC: 0.35106 cumulative IPC: 0.39037 (Simulation time: 0 hr 10 min 49 sec) 
Heartbeat CPU  0 instructions:  380000000 cycles:  824612713 heartbeat IPC: 0.35543 cumulative IPC: 0.39023 (Simulation time: 0 hr 10 min 51 sec) 
Heartbeat CPU  0 instructions:  381000002 cycles:  827431539 heartbeat IPC: 0.35476 cumulative IPC: 0.39009 (Simulation time: 0 hr 10 min 53 sec) 
Heartbeat CPU  0 instructions:  382000000 cycles:  830137464 heartbeat IPC: 0.36956 cumulative IPC: 0.39001 (Simulation time: 0 hr 10 min 55 sec) 
Heartbeat CPU  0 instructions:  383000001 cycles:  832847960 heartbeat IPC: 0.36894 cumulative IPC: 0.38993 (Simulation time: 0 hr 10 min 56 sec) 
Heartbeat CPU  0 instructions:  384000000 cycles:  835641922 heartbeat IPC: 0.35791 cumulative IPC: 0.38981 (Simulation time: 0 hr 10 min 58 sec) 
Heartbeat CPU  0 instructions:  385000002 cycles:  838356359 heartbeat IPC: 0.36840 cumulative IPC: 0.38973 (Simulation time: 0 hr 11 min 0 sec) 
Heartbeat CPU  0 instructions:  386000000 cycles:  840927922 heartbeat IPC: 0.38887 cumulative IPC: 0.38973 (Simulation time: 0 hr 11 min 2 sec) 
Heartbeat CPU  0 instructions:  387000000 cycles:  843535981 heartbeat IPC: 0.38343 cumulative IPC: 0.38971 (Simulation time: 0 hr 11 min 4 sec) 
Heartbeat CPU  0 instructions:  388000000 cycles:  846330740 heartbeat IPC: 0.35781 cumulative IPC: 0.38959 (Simulation time: 0 hr 11 min 6 sec) 
Heartbeat CPU  0 instructions:  389000000 cycles:  848988571 heartbeat IPC: 0.37625 cumulative IPC: 0.38954 (Simulation time: 0 hr 11 min 8 sec) 
Heartbeat CPU  0 instructions:  390000001 cycles:  851769118 heartbeat IPC: 0.35964 cumulative IPC: 0.38943 (Simulation time: 0 hr 11 min 10 sec) 
Heartbeat CPU  0 instructions:  391000001 cycles:  854506677 heartbeat IPC: 0.36529 cumulative IPC: 0.38934 (Simulation time: 0 hr 11 min 11 sec) 
Heartbeat CPU  0 instructions:  392000000 cycles:  857102748 heartbeat IPC: 0.38520 cumulative IPC: 0.38932 (Simulation time: 0 hr 11 min 13 sec) 
Heartbeat CPU  0 instructions:  393000001 cycles:  859887136 heartbeat IPC: 0.35915 cumulative IPC: 0.38921 (Simulation time: 0 hr 11 min 15 sec) 
Heartbeat CPU  0 instructions:  394000002 cycles:  862584425 heartbeat IPC: 0.37074 cumulative IPC: 0.38915 (Simulation time: 0 hr 11 min 17 sec) 
Heartbeat CPU  0 instructions:  395000000 cycles:  865133305 heartbeat IPC: 0.39233 cumulative IPC: 0.38916 (Simulation time: 0 hr 11 min 19 sec) 
Heartbeat CPU  0 instructions:  396000000 cycles:  867948564 heartbeat IPC: 0.35521 cumulative IPC: 0.38903 (Simulation time: 0 hr 11 min 21 sec) 
Heartbeat CPU  0 instructions:  397000000 cycles:  870700967 heartbeat IPC: 0.36332 cumulative IPC: 0.38894 (Simulation time: 0 hr 11 min 22 sec) 
Heartbeat CPU  0 instructions:  398000000 cycles:  873211818 heartbeat IPC: 0.39827 cumulative IPC: 0.38897 (Simulation time: 0 hr 11 min 24 sec) 
Heartbeat CPU  0 instructions:  399000000 cycles:  875998215 heartbeat IPC: 0.35889 cumulative IPC: 0.38886 (Simulation time: 0 hr 11 min 26 sec) 
Heartbeat CPU  0 instructions:  400000000 cycles:  878539168 heartbeat IPC: 0.39355 cumulative IPC: 0.38888 (Simulation time: 0 hr 11 min 28 sec) 
Heartbeat CPU  0 instructions:  401000003 cycles:  881221157 heartbeat IPC: 0.37286 cumulative IPC: 0.38882 (Simulation time: 0 hr 11 min 30 sec) 
Heartbeat CPU  0 instructions:  402000001 cycles:  883763097 heartbeat IPC: 0.39340 cumulative IPC: 0.38884 (Simulation time: 0 hr 11 min 32 sec) 
Heartbeat CPU  0 instructions:  403000001 cycles:  886225529 heartbeat IPC: 0.40610 cumulative IPC: 0.38889 (Simulation time: 0 hr 11 min 33 sec) 
Heartbeat CPU  0 instructions:  404000000 cycles:  889082654 heartbeat IPC: 0.35000 cumulative IPC: 0.38875 (Simulation time: 0 hr 11 min 35 sec) 
Heartbeat CPU  0 instructions:  405000001 cycles:  891918111 heartbeat IPC: 0.35268 cumulative IPC: 0.38862 (Simulation time: 0 hr 11 min 37 sec) 
Heartbeat CPU  0 instructions:  406000002 cycles:  894731585 heartbeat IPC: 0.35543 cumulative IPC: 0.38850 (Simulation time: 0 hr 11 min 39 sec) 
Heartbeat CPU  0 instructions:  407000000 cycles:  897368467 heartbeat IPC: 0.37924 cumulative IPC: 0.38847 (Simulation time: 0 hr 11 min 41 sec) 
Heartbeat CPU  0 instructions:  408000000 cycles:  900102208 heartbeat IPC: 0.36580 cumulative IPC: 0.38839 (Simulation time: 0 hr 11 min 43 sec) 
Heartbeat CPU  0 instructions:  409000003 cycles:  902824378 heartbeat IPC: 0.36736 cumulative IPC: 0.38832 (Simulation time: 0 hr 11 min 45 sec) 
Heartbeat CPU  0 instructions:  410000002 cycles:  905452531 heartbeat IPC: 0.38049 cumulative IPC: 0.38829 (Simulation time: 0 hr 11 min 46 sec) 
Heartbeat CPU  0 instructions:  411000000 cycles:  908190127 heartbeat IPC: 0.36528 cumulative IPC: 0.38821 (Simulation time: 0 hr 11 min 48 sec) 
Heartbeat CPU  0 instructions:  412000000 cycles:  910851845 heartbeat IPC: 0.37570 cumulative IPC: 0.38817 (Simulation time: 0 hr 11 min 50 sec) 
Heartbeat CPU  0 instructions:  413000001 cycles:  913656053 heartbeat IPC: 0.35661 cumulative IPC: 0.38806 (Simulation time: 0 hr 11 min 52 sec) 
Heartbeat CPU  0 instructions:  414000003 cycles:  916257647 heartbeat IPC: 0.38438 cumulative IPC: 0.38805 (Simulation time: 0 hr 11 min 54 sec) 
Heartbeat CPU  0 instructions:  415000002 cycles:  918913316 heartbeat IPC: 0.37655 cumulative IPC: 0.38801 (Simulation time: 0 hr 11 min 56 sec) 
Heartbeat CPU  0 instructions:  416000000 cycles:  921588627 heartbeat IPC: 0.37379 cumulative IPC: 0.38797 (Simulation time: 0 hr 11 min 58 sec) 
Heartbeat CPU  0 instructions:  417000003 cycles:  924314060 heartbeat IPC: 0.36692 cumulative IPC: 0.38790 (Simulation time: 0 hr 12 min 0 sec) 
Heartbeat CPU  0 instructions:  418000001 cycles:  927076888 heartbeat IPC: 0.36195 cumulative IPC: 0.38781 (Simulation time: 0 hr 12 min 1 sec) 
Heartbeat CPU  0 instructions:  419000000 cycles:  929887999 heartbeat IPC: 0.35573 cumulative IPC: 0.38770 (Simulation time: 0 hr 12 min 3 sec) 
Heartbeat CPU  0 instructions:  420000000 cycles:  932621281 heartbeat IPC: 0.36586 cumulative IPC: 0.38763 (Simulation time: 0 hr 12 min 5 sec) 
Heartbeat CPU  0 instructions:  421000000 cycles:  935122174 heartbeat IPC: 0.39986 cumulative IPC: 0.38766 (Simulation time: 0 hr 12 min 7 sec) 
Heartbeat CPU  0 instructions:  422000001 cycles:  937939695 heartbeat IPC: 0.35492 cumulative IPC: 0.38755 (Simulation time: 0 hr 12 min 9 sec) 
Heartbeat CPU  0 instructions:  423000003 cycles:  940624734 heartbeat IPC: 0.37243 cumulative IPC: 0.38750 (Simulation time: 0 hr 12 min 11 sec) 
Heartbeat CPU  0 instructions:  424000000 cycles:  943181296 heartbeat IPC: 0.39115 cumulative IPC: 0.38751 (Simulation time: 0 hr 12 min 12 sec) 
Heartbeat CPU  0 instructions:  425000001 cycles:  945898738 heartbeat IPC: 0.36799 cumulative IPC: 0.38745 (Simulation time: 0 hr 12 min 14 sec) 
Heartbeat CPU  0 instructions:  426000003 cycles:  948380938 heartbeat IPC: 0.40287 cumulative IPC: 0.38750 (Simulation time: 0 hr 12 min 16 sec) 
Heartbeat CPU  0 instructions:  427000002 cycles:  950951766 heartbeat IPC: 0.38898 cumulative IPC: 0.38750 (Simulation time: 0 hr 12 min 18 sec) 
Heartbeat CPU  0 instructions:  428000000 cycles:  953534620 heartbeat IPC: 0.38717 cumulative IPC: 0.38750 (Simulation time: 0 hr 12 min 20 sec) 
Heartbeat CPU  0 instructions:  429000003 cycles:  956078033 heartbeat IPC: 0.39317 cumulative IPC: 0.38752 (Simulation time: 0 hr 12 min 21 sec) 
Heartbeat CPU  0 instructions:  430000002 cycles:  958827030 heartbeat IPC: 0.36377 cumulative IPC: 0.38744 (Simulation time: 0 hr 12 min 23 sec) 
Heartbeat CPU  0 instructions:  431000001 cycles:  961319380 heartbeat IPC: 0.40123 cumulative IPC: 0.38748 (Simulation time: 0 hr 12 min 25 sec) 
Heartbeat CPU  0 instructions:  432000000 cycles:  964014848 heartbeat IPC: 0.37099 cumulative IPC: 0.38743 (Simulation time: 0 hr 12 min 27 sec) 
Heartbeat CPU  0 instructions:  433000003 cycles:  966673861 heartbeat IPC: 0.37608 cumulative IPC: 0.38739 (Simulation time: 0 hr 12 min 29 sec) 
Heartbeat CPU  0 instructions:  434000000 cycles:  969209933 heartbeat IPC: 0.39431 cumulative IPC: 0.38741 (Simulation time: 0 hr 12 min 31 sec) 
Heartbeat CPU  0 instructions:  435000000 cycles:  971998766 heartbeat IPC: 0.35857 cumulative IPC: 0.38732 (Simulation time: 0 hr 12 min 32 sec) 
Heartbeat CPU  0 instructions:  436000000 cycles:  974271431 heartbeat IPC: 0.44001 cumulative IPC: 0.38746 (Simulation time: 0 hr 12 min 34 sec) 
Heartbeat CPU  0 instructions:  437000003 cycles:  976832040 heartbeat IPC: 0.39053 cumulative IPC: 0.38747 (Simulation time: 0 hr 12 min 36 sec) 
Heartbeat CPU  0 instructions:  438000001 cycles:  979698377 heartbeat IPC: 0.34888 cumulative IPC: 0.38734 (Simulation time: 0 hr 12 min 38 sec) 
Heartbeat CPU  0 instructions:  439000000 cycles:  982575139 heartbeat IPC: 0.34761 cumulative IPC: 0.38721 (Simulation time: 0 hr 12 min 40 sec) 
Heartbeat CPU  0 instructions:  440000000 cycles:  985336971 heartbeat IPC: 0.36208 cumulative IPC: 0.38713 (Simulation time: 0 hr 12 min 42 sec) 
Heartbeat CPU  0 instructions:  441000003 cycles:  988118175 heartbeat IPC: 0.35956 cumulative IPC: 0.38705 (Simulation time: 0 hr 12 min 44 sec) 
Heartbeat CPU  0 instructions:  442000002 cycles:  990877810 heartbeat IPC: 0.36237 cumulative IPC: 0.38697 (Simulation time: 0 hr 12 min 45 sec) 
Heartbeat CPU  0 instructions:  443000001 cycles:  993708726 heartbeat IPC: 0.35324 cumulative IPC: 0.38686 (Simulation time: 0 hr 12 min 47 sec) 
Heartbeat CPU  0 instructions:  444000000 cycles:  996480938 heartbeat IPC: 0.36072 cumulative IPC: 0.38678 (Simulation time: 0 hr 12 min 49 sec) 
Heartbeat CPU  0 instructions:  445000000 cycles:  999341688 heartbeat IPC: 0.34956 cumulative IPC: 0.38666 (Simulation time: 0 hr 12 min 51 sec) 
Heartbeat CPU  0 instructions:  446000002 cycles: 1002181420 heartbeat IPC: 0.35215 cumulative IPC: 0.38655 (Simulation time: 0 hr 12 min 53 sec) 
Heartbeat CPU  0 instructions:  447000000 cycles: 1004947583 heartbeat IPC: 0.36151 cumulative IPC: 0.38647 (Simulation time: 0 hr 12 min 55 sec) 
Heartbeat CPU  0 instructions:  448000000 cycles: 1007470794 heartbeat IPC: 0.39632 cumulative IPC: 0.38650 (Simulation time: 0 hr 12 min 57 sec) 
Heartbeat CPU  0 instructions:  449000001 cycles: 1010329663 heartbeat IPC: 0.34979 cumulative IPC: 0.38638 (Simulation time: 0 hr 12 min 59 sec) 
Heartbeat CPU  0 instructions:  450000002 cycles: 1013084576 heartbeat IPC: 0.36299 cumulative IPC: 0.38631 (Simulation time: 0 hr 13 min 1 sec) 
Heartbeat CPU  0 instructions:  451000001 cycles: 1015768552 heartbeat IPC: 0.37258 cumulative IPC: 0.38627 (Simulation time: 0 hr 13 min 2 sec) 
Heartbeat CPU  0 instructions:  452000000 cycles: 1018584960 heartbeat IPC: 0.35506 cumulative IPC: 0.38618 (Simulation time: 0 hr 13 min 4 sec) 
Heartbeat CPU  0 instructions:  453000001 cycles: 1021377739 heartbeat IPC: 0.35807 cumulative IPC: 0.38609 (Simulation time: 0 hr 13 min 6 sec) 
Heartbeat CPU  0 instructions:  454000003 cycles: 1024229080 heartbeat IPC: 0.35071 cumulative IPC: 0.38598 (Simulation time: 0 hr 13 min 8 sec) 
Heartbeat CPU  0 instructions:  455000000 cycles: 1026940218 heartbeat IPC: 0.36885 cumulative IPC: 0.38593 (Simulation time: 0 hr 13 min 10 sec) 
Heartbeat CPU  0 instructions:  456000000 cycles: 1029756704 heartbeat IPC: 0.35505 cumulative IPC: 0.38584 (Simulation time: 0 hr 13 min 12 sec) 
Heartbeat CPU  0 instructions:  457000000 cycles: 1032477375 heartbeat IPC: 0.36756 cumulative IPC: 0.38578 (Simulation time: 0 hr 13 min 14 sec) 
Heartbeat CPU  0 instructions:  458000003 cycles: 1035260209 heartbeat IPC: 0.35935 cumulative IPC: 0.38570 (Simulation time: 0 hr 13 min 16 sec) 
Heartbeat CPU  0 instructions:  459000001 cycles: 1037989404 heartbeat IPC: 0.36641 cumulative IPC: 0.38565 (Simulation time: 0 hr 13 min 17 sec) 
Heartbeat CPU  0 instructions:  460000000 cycles: 1040700528 heartbeat IPC: 0.36885 cumulative IPC: 0.38560 (Simulation time: 0 hr 13 min 19 sec) 
Heartbeat CPU  0 instructions:  461000002 cycles: 1043446048 heartbeat IPC: 0.36423 cumulative IPC: 0.38553 (Simulation time: 0 hr 13 min 21 sec) 
Heartbeat CPU  0 instructions:  462000001 cycles: 1046171877 heartbeat IPC: 0.36686 cumulative IPC: 0.38548 (Simulation time: 0 hr 13 min 23 sec) 
Heartbeat CPU  0 instructions:  463000001 cycles: 1048993843 heartbeat IPC: 0.35436 cumulative IPC: 0.38539 (Simulation time: 0 hr 13 min 25 sec) 
Heartbeat CPU  0 instructions:  464000000 cycles: 1051786804 heartbeat IPC: 0.35804 cumulative IPC: 0.38531 (Simulation time: 0 hr 13 min 27 sec) 
Heartbeat CPU  0 instructions:  465000001 cycles: 1054413215 heartbeat IPC: 0.38075 cumulative IPC: 0.38529 (Simulation time: 0 hr 13 min 29 sec) 
Heartbeat CPU  0 instructions:  466000000 cycles: 1057128670 heartbeat IPC: 0.36826 cumulative IPC: 0.38525 (Simulation time: 0 hr 13 min 30 sec) 
Heartbeat CPU  0 instructions:  467000003 cycles: 1059831234 heartbeat IPC: 0.37002 cumulative IPC: 0.38520 (Simulation time: 0 hr 13 min 32 sec) 
Heartbeat CPU  0 instructions:  468000000 cycles: 1062465230 heartbeat IPC: 0.37965 cumulative IPC: 0.38519 (Simulation time: 0 hr 13 min 34 sec) 
Heartbeat CPU  0 instructions:  469000002 cycles: 1065021511 heartbeat IPC: 0.39119 cumulative IPC: 0.38520 (Simulation time: 0 hr 13 min 36 sec) 
Heartbeat CPU  0 instructions:  470000000 cycles: 1067719961 heartbeat IPC: 0.37058 cumulative IPC: 0.38516 (Simulation time: 0 hr 13 min 38 sec) 
Heartbeat CPU  0 instructions:  471000000 cycles: 1070304982 heartbeat IPC: 0.38684 cumulative IPC: 0.38517 (Simulation time: 0 hr 13 min 40 sec) 
Heartbeat CPU  0 instructions:  472000000 cycles: 1072962484 heartbeat IPC: 0.37629 cumulative IPC: 0.38514 (Simulation time: 0 hr 13 min 42 sec) 
Heartbeat CPU  0 instructions:  473000001 cycles: 1075883712 heartbeat IPC: 0.34232 cumulative IPC: 0.38501 (Simulation time: 0 hr 13 min 43 sec) 
Heartbeat CPU  0 instructions:  474000000 cycles: 1078489079 heartbeat IPC: 0.38382 cumulative IPC: 0.38501 (Simulation time: 0 hr 13 min 45 sec) 
Heartbeat CPU  0 instructions:  475000000 cycles: 1081300143 heartbeat IPC: 0.35574 cumulative IPC: 0.38493 (Simulation time: 0 hr 13 min 47 sec) 
Heartbeat CPU  0 instructions:  476000000 cycles: 1084106735 heartbeat IPC: 0.35630 cumulative IPC: 0.38484 (Simulation time: 0 hr 13 min 49 sec) 
Heartbeat CPU  0 instructions:  477000003 cycles: 1086807400 heartbeat IPC: 0.37028 cumulative IPC: 0.38480 (Simulation time: 0 hr 13 min 51 sec) 
Heartbeat CPU  0 instructions:  478000001 cycles: 1089467172 heartbeat IPC: 0.37597 cumulative IPC: 0.38478 (Simulation time: 0 hr 13 min 53 sec) 
Heartbeat CPU  0 instructions:  479000001 cycles: 1092072554 heartbeat IPC: 0.38382 cumulative IPC: 0.38478 (Simulation time: 0 hr 13 min 54 sec) 
Heartbeat CPU  0 instructions:  480000000 cycles: 1094921269 heartbeat IPC: 0.35104 cumulative IPC: 0.38468 (Simulation time: 0 hr 13 min 56 sec) 
Heartbeat CPU  0 instructions:  481000000 cycles: 1097565811 heartbeat IPC: 0.37814 cumulative IPC: 0.38466 (Simulation time: 0 hr 13 min 58 sec) 
Heartbeat CPU  0 instructions:  482000000 cycles: 1100192734 heartbeat IPC: 0.38067 cumulative IPC: 0.38465 (Simulation time: 0 hr 14 min 0 sec) 
Heartbeat CPU  0 instructions:  483000000 cycles: 1102714116 heartbeat IPC: 0.39661 cumulative IPC: 0.38468 (Simulation time: 0 hr 14 min 2 sec) 
Heartbeat CPU  0 instructions:  484000000 cycles: 1105402575 heartbeat IPC: 0.37196 cumulative IPC: 0.38465 (Simulation time: 0 hr 14 min 3 sec) 
Heartbeat CPU  0 instructions:  485000000 cycles: 1108059071 heartbeat IPC: 0.37644 cumulative IPC: 0.38463 (Simulation time: 0 hr 14 min 5 sec) 
Heartbeat CPU  0 instructions:  486000000 cycles: 1110667692 heartbeat IPC: 0.38334 cumulative IPC: 0.38462 (Simulation time: 0 hr 14 min 7 sec) 
Heartbeat CPU  0 instructions:  487000003 cycles: 1113460442 heartbeat IPC: 0.35807 cumulative IPC: 0.38455 (Simulation time: 0 hr 14 min 9 sec) 
Heartbeat CPU  0 instructions:  488000000 cycles: 1116262950 heartbeat IPC: 0.35682 cumulative IPC: 0.38447 (Simulation time: 0 hr 14 min 11 sec) 
Heartbeat CPU  0 instructions:  489000000 cycles: 1118971951 heartbeat IPC: 0.36914 cumulative IPC: 0.38443 (Simulation time: 0 hr 14 min 13 sec) 
Heartbeat CPU  0 instructions:  490000003 cycles: 1121731329 heartbeat IPC: 0.36240 cumulative IPC: 0.38437 (Simulation time: 0 hr 14 min 15 sec) 
Heartbeat CPU  0 instructions:  491000001 cycles: 1124454850 heartbeat IPC: 0.36717 cumulative IPC: 0.38432 (Simulation time: 0 hr 14 min 16 sec) 
Heartbeat CPU  0 instructions:  492000000 cycles: 1127231951 heartbeat IPC: 0.36009 cumulative IPC: 0.38426 (Simulation time: 0 hr 14 min 18 sec) 
Heartbeat CPU  0 instructions:  493000000 cycles: 1129913342 heartbeat IPC: 0.37294 cumulative IPC: 0.38423 (Simulation time: 0 hr 14 min 20 sec) 
Heartbeat CPU  0 instructions:  494000000 cycles: 1132525677 heartbeat IPC: 0.38280 cumulative IPC: 0.38422 (Simulation time: 0 hr 14 min 22 sec) 
Heartbeat CPU  0 instructions:  495000001 cycles: 1135361284 heartbeat IPC: 0.35266 cumulative IPC: 0.38414 (Simulation time: 0 hr 14 min 24 sec) 
Heartbeat CPU  0 instructions:  496000000 cycles: 1138112825 heartbeat IPC: 0.36343 cumulative IPC: 0.38408 (Simulation time: 0 hr 14 min 26 sec) 
Heartbeat CPU  0 instructions:  497000001 cycles: 1140883734 heartbeat IPC: 0.36089 cumulative IPC: 0.38402 (Simulation time: 0 hr 14 min 28 sec) 
Heartbeat CPU  0 instructions:  498000000 cycles: 1143649303 heartbeat IPC: 0.36159 cumulative IPC: 0.38396 (Simulation time: 0 hr 14 min 30 sec) 
Heartbeat CPU  0 instructions:  499000002 cycles: 1146385516 heartbeat IPC: 0.36547 cumulative IPC: 0.38391 (Simulation time: 0 hr 14 min 31 sec) 
Heartbeat CPU  0 instructions:  500000000 cycles: 1149060215 heartbeat IPC: 0.37387 cumulative IPC: 0.38389 (Simulation time: 0 hr 14 min 33 sec) 
Heartbeat CPU  0 instructions:  501000000 cycles: 1151749526 heartbeat IPC: 0.37184 cumulative IPC: 0.38386 (Simulation time: 0 hr 14 min 35 sec) 
Heartbeat CPU  0 instructions:  502000000 cycles: 1154529781 heartbeat IPC: 0.35968 cumulative IPC: 0.38379 (Simulation time: 0 hr 14 min 37 sec) 
Heartbeat CPU  0 instructions:  503000002 cycles: 1157309318 heartbeat IPC: 0.35977 cumulative IPC: 0.38373 (Simulation time: 0 hr 14 min 39 sec) 
Heartbeat CPU  0 instructions:  504000000 cycles: 1160140127 heartbeat IPC: 0.35326 cumulative IPC: 0.38365 (Simulation time: 0 hr 14 min 41 sec) 
Heartbeat CPU  0 instructions:  505000001 cycles: 1162726085 heartbeat IPC: 0.38670 cumulative IPC: 0.38365 (Simulation time: 0 hr 14 min 42 sec) 
Heartbeat CPU  0 instructions:  506000001 cycles: 1165540927 heartbeat IPC: 0.35526 cumulative IPC: 0.38358 (Simulation time: 0 hr 14 min 44 sec) 
Heartbeat CPU  0 instructions:  507000003 cycles: 1168359501 heartbeat IPC: 0.35479 cumulative IPC: 0.38350 (Simulation time: 0 hr 14 min 46 sec) 
Heartbeat CPU  0 instructions:  508000000 cycles: 1171094660 heartbeat IPC: 0.36561 cumulative IPC: 0.38346 (Simulation time: 0 hr 14 min 48 sec) 
Heartbeat CPU  0 instructions:  509000001 cycles: 1173634526 heartbeat IPC: 0.39372 cumulative IPC: 0.38348 (Simulation time: 0 hr 14 min 50 sec) 
Heartbeat CPU  0 instructions:  510000003 cycles: 1176353261 heartbeat IPC: 0.36782 cumulative IPC: 0.38344 (Simulation time: 0 hr 14 min 52 sec) 
Heartbeat CPU  0 instructions:  511000001 cycles: 1178751518 heartbeat IPC: 0.41697 cumulative IPC: 0.38351 (Simulation time: 0 hr 14 min 53 sec) 
Heartbeat CPU  0 instructions:  512000000 cycles: 1181493780 heartbeat IPC: 0.36466 cumulative IPC: 0.38347 (Simulation time: 0 hr 14 min 55 sec) 
Heartbeat CPU  0 instructions:  513000001 cycles: 1184178212 heartbeat IPC: 0.37252 cumulative IPC: 0.38344 (Simulation time: 0 hr 14 min 57 sec) 
Heartbeat CPU  0 instructions:  514000002 cycles: 1186844341 heartbeat IPC: 0.37508 cumulative IPC: 0.38342 (Simulation time: 0 hr 14 min 59 sec) 
Heartbeat CPU  0 instructions:  515000001 cycles: 1189344992 heartbeat IPC: 0.39990 cumulative IPC: 0.38346 (Simulation time: 0 hr 15 min 1 sec) 
Heartbeat CPU  0 instructions:  516000000 cycles: 1191828661 heartbeat IPC: 0.40263 cumulative IPC: 0.38350 (Simulation time: 0 hr 15 min 2 sec) 
Heartbeat CPU  0 instructions:  517000002 cycles: 1194650246 heartbeat IPC: 0.35441 cumulative IPC: 0.38343 (Simulation time: 0 hr 15 min 4 sec) 
Heartbeat CPU  0 instructions:  518000001 cycles: 1197469273 heartbeat IPC: 0.35473 cumulative IPC: 0.38335 (Simulation time: 0 hr 15 min 6 sec) 
Heartbeat CPU  0 instructions:  519000001 cycles: 1200148765 heartbeat IPC: 0.37321 cumulative IPC: 0.38333 (Simulation time: 0 hr 15 min 8 sec) 
Heartbeat CPU  0 instructions:  520000000 cycles: 1202950277 heartbeat IPC: 0.35695 cumulative IPC: 0.38326 (Simulation time: 0 hr 15 min 10 sec) 
Heartbeat CPU  0 instructions:  521000000 cycles: 1205600858 heartbeat IPC: 0.37728 cumulative IPC: 0.38324 (Simulation time: 0 hr 15 min 11 sec) 
Heartbeat CPU  0 instructions:  522000000 cycles: 1208208989 heartbeat IPC: 0.38342 cumulative IPC: 0.38324 (Simulation time: 0 hr 15 min 13 sec) 
Heartbeat CPU  0 instructions:  523000002 cycles: 1210648171 heartbeat IPC: 0.40997 cumulative IPC: 0.38330 (Simulation time: 0 hr 15 min 15 sec) 
Heartbeat CPU  0 instructions:  524000000 cycles: 1213416036 heartbeat IPC: 0.36129 cumulative IPC: 0.38325 (Simulation time: 0 hr 15 min 17 sec) 
Heartbeat CPU  0 instructions:  525000000 cycles: 1215989178 heartbeat IPC: 0.38863 cumulative IPC: 0.38326 (Simulation time: 0 hr 15 min 19 sec) 
Heartbeat CPU  0 instructions:  526000000 cycles: 1218565380 heartbeat IPC: 0.38817 cumulative IPC: 0.38327 (Simulation time: 0 hr 15 min 20 sec) 
Heartbeat CPU  0 instructions:  527000000 cycles: 1220842833 heartbeat IPC: 0.43909 cumulative IPC: 0.38339 (Simulation time: 0 hr 15 min 22 sec) 
Heartbeat CPU  0 instructions:  528000000 cycles: 1223305189 heartbeat IPC: 0.40612 cumulative IPC: 0.38344 (Simulation time: 0 hr 15 min 24 sec) 
Heartbeat CPU  0 instructions:  529000001 cycles: 1225651483 heartbeat IPC: 0.42620 cumulative IPC: 0.38353 (Simulation time: 0 hr 15 min 26 sec) 
Heartbeat CPU  0 instructions:  530000000 cycles: 1227859296 heartbeat IPC: 0.45294 cumulative IPC: 0.38366 (Simulation time: 0 hr 15 min 27 sec) 
Heartbeat CPU  0 instructions:  531000001 cycles: 1230388361 heartbeat IPC: 0.39540 cumulative IPC: 0.38369 (Simulation time: 0 hr 15 min 29 sec) 
Heartbeat CPU  0 instructions:  532000000 cycles: 1232541912 heartbeat IPC: 0.46435 cumulative IPC: 0.38384 (Simulation time: 0 hr 15 min 31 sec) 
Heartbeat CPU  0 instructions:  533000000 cycles: 1235340187 heartbeat IPC: 0.35736 cumulative IPC: 0.38378 (Simulation time: 0 hr 15 min 33 sec) 
Heartbeat CPU  0 instructions:  534000003 cycles: 1237701272 heartbeat IPC: 0.42354 cumulative IPC: 0.38386 (Simulation time: 0 hr 15 min 35 sec) 
Heartbeat CPU  0 instructions:  535000002 cycles: 1240434671 heartbeat IPC: 0.36584 cumulative IPC: 0.38382 (Simulation time: 0 hr 15 min 36 sec) 
Heartbeat CPU  0 instructions:  536000000 cycles: 1242801887 heartbeat IPC: 0.42244 cumulative IPC: 0.38390 (Simulation time: 0 hr 15 min 38 sec) 
Heartbeat CPU  0 instructions:  537000002 cycles: 1245296903 heartbeat IPC: 0.40080 cumulative IPC: 0.38394 (Simulation time: 0 hr 15 min 40 sec) 
Heartbeat CPU  0 instructions:  538000000 cycles: 1247781952 heartbeat IPC: 0.40241 cumulative IPC: 0.38398 (Simulation time: 0 hr 15 min 42 sec) 
Heartbeat CPU  0 instructions:  539000001 cycles: 1250325558 heartbeat IPC: 0.39314 cumulative IPC: 0.38400 (Simulation time: 0 hr 15 min 43 sec) 
Heartbeat CPU  0 instructions:  540000000 cycles: 1252866490 heartbeat IPC: 0.39356 cumulative IPC: 0.38402 (Simulation time: 0 hr 15 min 45 sec) 
Heartbeat CPU  0 instructions:  541000001 cycles: 1255627568 heartbeat IPC: 0.36218 cumulative IPC: 0.38396 (Simulation time: 0 hr 15 min 47 sec) 
Heartbeat CPU  0 instructions:  542000001 cycles: 1258285415 heartbeat IPC: 0.37624 cumulative IPC: 0.38395 (Simulation time: 0 hr 15 min 49 sec) 
Heartbeat CPU  0 instructions:  543000002 cycles: 1261070670 heartbeat IPC: 0.35903 cumulative IPC: 0.38389 (Simulation time: 0 hr 15 min 51 sec) 
Heartbeat CPU  0 instructions:  544000000 cycles: 1263718459 heartbeat IPC: 0.37767 cumulative IPC: 0.38387 (Simulation time: 0 hr 15 min 52 sec) 
Heartbeat CPU  0 instructions:  545000001 cycles: 1266382024 heartbeat IPC: 0.37544 cumulative IPC: 0.38385 (Simulation time: 0 hr 15 min 54 sec) 
Heartbeat CPU  0 instructions:  546000001 cycles: 1269102827 heartbeat IPC: 0.36754 cumulative IPC: 0.38381 (Simulation time: 0 hr 15 min 56 sec) 
Heartbeat CPU  0 instructions:  547000000 cycles: 1271768496 heartbeat IPC: 0.37514 cumulative IPC: 0.38380 (Simulation time: 0 hr 15 min 58 sec) 
Heartbeat CPU  0 instructions:  548000000 cycles: 1274325228 heartbeat IPC: 0.39112 cumulative IPC: 0.38381 (Simulation time: 0 hr 16 min 0 sec) 
Heartbeat CPU  0 instructions:  549000000 cycles: 1276852255 heartbeat IPC: 0.39572 cumulative IPC: 0.38384 (Simulation time: 0 hr 16 min 1 sec) 
Heartbeat CPU  0 instructions:  550000001 cycles: 1279736469 heartbeat IPC: 0.34672 cumulative IPC: 0.38375 (Simulation time: 0 hr 16 min 3 sec) 
Heartbeat CPU  0 instructions:  551000003 cycles: 1282394979 heartbeat IPC: 0.37615 cumulative IPC: 0.38373 (Simulation time: 0 hr 16 min 5 sec) 
Heartbeat CPU  0 instructions:  552000000 cycles: 1284981051 heartbeat IPC: 0.38669 cumulative IPC: 0.38373 (Simulation time: 0 hr 16 min 7 sec) 
Heartbeat CPU  0 instructions:  553000002 cycles: 1287599194 heartbeat IPC: 0.38195 cumulative IPC: 0.38373 (Simulation time: 0 hr 16 min 9 sec) 
Heartbeat CPU  0 instructions:  554000000 cycles: 1290055872 heartbeat IPC: 0.40705 cumulative IPC: 0.38378 (Simulation time: 0 hr 16 min 10 sec) 
Heartbeat CPU  0 instructions:  555000003 cycles: 1292820037 heartbeat IPC: 0.36177 cumulative IPC: 0.38373 (Simulation time: 0 hr 16 min 12 sec) 
Heartbeat CPU  0 instructions:  556000000 cycles: 1295472004 heartbeat IPC: 0.37708 cumulative IPC: 0.38371 (Simulation time: 0 hr 16 min 14 sec) 
Heartbeat CPU  0 instructions:  557000000 cycles: 1298101928 heartbeat IPC: 0.38024 cumulative IPC: 0.38371 (Simulation time: 0 hr 16 min 16 sec) 
Heartbeat CPU  0 instructions:  558000001 cycles: 1300884499 heartbeat IPC: 0.35938 cumulative IPC: 0.38365 (Simulation time: 0 hr 16 min 18 sec) 
Heartbeat CPU  0 instructions:  559000001 cycles: 1303786481 heartbeat IPC: 0.34459 cumulative IPC: 0.38355 (Simulation time: 0 hr 16 min 20 sec) 
Heartbeat CPU  0 instructions:  560000000 cycles: 1306610666 heartbeat IPC: 0.35408 cumulative IPC: 0.38348 (Simulation time: 0 hr 16 min 22 sec) 
Heartbeat CPU  0 instructions:  561000002 cycles: 1309362517 heartbeat IPC: 0.36339 cumulative IPC: 0.38344 (Simulation time: 0 hr 16 min 23 sec) 
Heartbeat CPU  0 instructions:  562000002 cycles: 1311993667 heartbeat IPC: 0.38006 cumulative IPC: 0.38343 (Simulation time: 0 hr 16 min 25 sec) 
Heartbeat CPU  0 instructions:  563000000 cycles: 1314782264 heartbeat IPC: 0.35860 cumulative IPC: 0.38337 (Simulation time: 0 hr 16 min 27 sec) 
Heartbeat CPU  0 instructions:  564000000 cycles: 1317497311 heartbeat IPC: 0.36832 cumulative IPC: 0.38334 (Simulation time: 0 hr 16 min 29 sec) 
Heartbeat CPU  0 instructions:  565000000 cycles: 1320277161 heartbeat IPC: 0.35973 cumulative IPC: 0.38329 (Simulation time: 0 hr 16 min 31 sec) 
Heartbeat CPU  0 instructions:  566000001 cycles: 1322801315 heartbeat IPC: 0.39617 cumulative IPC: 0.38331 (Simulation time: 0 hr 16 min 33 sec) 
Heartbeat CPU  0 instructions:  567000000 cycles: 1325598283 heartbeat IPC: 0.35753 cumulative IPC: 0.38325 (Simulation time: 0 hr 16 min 34 sec) 
Heartbeat CPU  0 instructions:  568000000 cycles: 1328250687 heartbeat IPC: 0.37702 cumulative IPC: 0.38324 (Simulation time: 0 hr 16 min 36 sec) 
Heartbeat CPU  0 instructions:  569000001 cycles: 1331076440 heartbeat IPC: 0.35389 cumulative IPC: 0.38317 (Simulation time: 0 hr 16 min 38 sec) 
Heartbeat CPU  0 instructions:  570000002 cycles: 1333552047 heartbeat IPC: 0.40394 cumulative IPC: 0.38321 (Simulation time: 0 hr 16 min 40 sec) 
Heartbeat CPU  0 instructions:  571000000 cycles: 1336250956 heartbeat IPC: 0.37052 cumulative IPC: 0.38319 (Simulation time: 0 hr 16 min 42 sec) 
Heartbeat CPU  0 instructions:  572000000 cycles: 1338861734 heartbeat IPC: 0.38303 cumulative IPC: 0.38319 (Simulation time: 0 hr 16 min 43 sec) 
Heartbeat CPU  0 instructions:  573000001 cycles: 1341259922 heartbeat IPC: 0.41698 cumulative IPC: 0.38325 (Simulation time: 0 hr 16 min 45 sec) 
Heartbeat CPU  0 instructions:  574000001 cycles: 1343947550 heartbeat IPC: 0.37208 cumulative IPC: 0.38323 (Simulation time: 0 hr 16 min 47 sec) 
Heartbeat CPU  0 instructions:  575000002 cycles: 1346499116 heartbeat IPC: 0.39192 cumulative IPC: 0.38325 (Simulation time: 0 hr 16 min 49 sec) 
Heartbeat CPU  0 instructions:  576000000 cycles: 1349114544 heartbeat IPC: 0.38235 cumulative IPC: 0.38324 (Simulation time: 0 hr 16 min 50 sec) 
Heartbeat CPU  0 instructions:  577000000 cycles: 1351687003 heartbeat IPC: 0.38873 cumulative IPC: 0.38325 (Simulation time: 0 hr 16 min 52 sec) 
Heartbeat CPU  0 instructions:  578000002 cycles: 1353949369 heartbeat IPC: 0.44202 cumulative IPC: 0.38336 (Simulation time: 0 hr 16 min 54 sec) 
Heartbeat CPU  0 instructions:  579000000 cycles: 1356738174 heartbeat IPC: 0.35858 cumulative IPC: 0.38331 (Simulation time: 0 hr 16 min 56 sec) 
Heartbeat CPU  0 instructions:  580000000 cycles: 1359537783 heartbeat IPC: 0.35719 cumulative IPC: 0.38325 (Simulation time: 0 hr 16 min 58 sec) 
Heartbeat CPU  0 instructions:  581000001 cycles: 1362258595 heartbeat IPC: 0.36754 cumulative IPC: 0.38321 (Simulation time: 0 hr 17 min 0 sec) 
Heartbeat CPU  0 instructions:  582000001 cycles: 1365148204 heartbeat IPC: 0.34607 cumulative IPC: 0.38313 (Simulation time: 0 hr 17 min 1 sec) 
Heartbeat CPU  0 instructions:  583000000 cycles: 1367994472 heartbeat IPC: 0.35134 cumulative IPC: 0.38306 (Simulation time: 0 hr 17 min 3 sec) 
Heartbeat CPU  0 instructions:  584000000 cycles: 1370642863 heartbeat IPC: 0.37759 cumulative IPC: 0.38305 (Simulation time: 0 hr 17 min 5 sec) 
Heartbeat CPU  0 instructions:  585000003 cycles: 1373229258 heartbeat IPC: 0.38664 cumulative IPC: 0.38305 (Simulation time: 0 hr 17 min 7 sec) 
Heartbeat CPU  0 instructions:  586000000 cycles: 1376105921 heartbeat IPC: 0.34762 cumulative IPC: 0.38297 (Simulation time: 0 hr 17 min 9 sec) 
Heartbeat CPU  0 instructions:  587000000 cycles: 1378777972 heartbeat IPC: 0.37424 cumulative IPC: 0.38295 (Simulation time: 0 hr 17 min 11 sec) 
Heartbeat CPU  0 instructions:  588000000 cycles: 1381542778 heartbeat IPC: 0.36169 cumulative IPC: 0.38291 (Simulation time: 0 hr 17 min 12 sec) 
Heartbeat CPU  0 instructions:  589000000 cycles: 1384312167 heartbeat IPC: 0.36109 cumulative IPC: 0.38286 (Simulation time: 0 hr 17 min 14 sec) 
Heartbeat CPU  0 instructions:  590000001 cycles: 1386715245 heartbeat IPC: 0.41613 cumulative IPC: 0.38292 (Simulation time: 0 hr 17 min 16 sec) 
Heartbeat CPU  0 instructions:  591000003 cycles: 1389347973 heartbeat IPC: 0.37983 cumulative IPC: 0.38292 (Simulation time: 0 hr 17 min 18 sec) 
Heartbeat CPU  0 instructions:  592000000 cycles: 1392108868 heartbeat IPC: 0.36220 cumulative IPC: 0.38287 (Simulation time: 0 hr 17 min 20 sec) 
Heartbeat CPU  0 instructions:  593000000 cycles: 1394812442 heartbeat IPC: 0.36988 cumulative IPC: 0.38284 (Simulation time: 0 hr 17 min 21 sec) 
Heartbeat CPU  0 instructions:  594000000 cycles: 1397028011 heartbeat IPC: 0.45135 cumulative IPC: 0.38296 (Simulation time: 0 hr 17 min 23 sec) 
Heartbeat CPU  0 instructions:  595000001 cycles: 1399543434 heartbeat IPC: 0.39755 cumulative IPC: 0.38299 (Simulation time: 0 hr 17 min 25 sec) 
Heartbeat CPU  0 instructions:  596000000 cycles: 1402330757 heartbeat IPC: 0.35877 cumulative IPC: 0.38294 (Simulation time: 0 hr 17 min 27 sec) 
Heartbeat CPU  0 instructions:  597000000 cycles: 1405204642 heartbeat IPC: 0.34796 cumulative IPC: 0.38286 (Simulation time: 0 hr 17 min 29 sec) 
Heartbeat CPU  0 instructions:  598000000 cycles: 1407745296 heartbeat IPC: 0.39360 cumulative IPC: 0.38288 (Simulation time: 0 hr 17 min 30 sec) 
Heartbeat CPU  0 instructions:  599000000 cycles: 1410621879 heartbeat IPC: 0.34763 cumulative IPC: 0.38280 (Simulation time: 0 hr 17 min 32 sec) 
Heartbeat CPU  0 instructions:  600000000 cycles: 1413015836 heartbeat IPC: 0.41772 cumulative IPC: 0.38287 (Simulation time: 0 hr 17 min 34 sec) 
Finished CPU 0 instructions: 500000000 cycles: 1305931317 cumulative IPC: 0.38287 (Simulation time: 0 hr 17 min 34 sec) 

ChampSim completed all CPUs

[ROI Statistics]
Core_0_instructions 500000000
Core_0_cycles 1305931317
Core_0_IPC 0.38287

Core_0_branch_prediction_accuracy 85.18932
Core_0_branch_MPKI 24.43069
Core_0_average_ROB_occupancy_at_mispredict 38.24677

Core_0_L1D_total_access 155497595
Core_0_L1D_total_hit 153181963
Core_0_L1D_total_miss 2315632
Core_0_L1D_loads 89624736
Core_0_L1D_load_hit 88795196
Core_0_L1D_load_miss 829540
Core_0_L1D_RFOs 65872859
Core_0_L1D_RFO_hit 64386767
Core_0_L1D_RFO_miss 1486092
Core_0_L1D_prefetches 0
Core_0_L1D_prefetch_hit 0
Core_0_L1D_prefetch_miss 0
Core_0_L1D_writebacks 0
Core_0_L1D_writeback_hit 0
Core_0_L1D_writeback_miss 0
Core_0_L1D_prefetch_requested 0
Core_0_L1D_prefetch_dropped 0
Core_0_L1D_prefetch_issued 0
Core_0_L1D_prefetch_filled 0
Core_0_L1D_prefetch_useful 0
Core_0_L1D_prefetch_useless 0
Core_0_L1D_prefetch_late 0
Core_0_L1D_average_miss_latency 193.09912

Core_0_L1D_rq_access 125889407
Core_0_L1D_rq_forward 0
Core_0_L1D_rq_merged 36174304
Core_0_L1D_rq_to_cache 89714527
Core_0_L1D_rq_full 0

Core_0_L1D_wq_access 70505122
Core_0_L1D_wq_forward 576
Core_0_L1D_wq_merged 423370
Core_0_L1D_wq_to_cache 70081752
Core_0_L1D_wq_full 16003010

Core_0_L1D_pq_access 0
Core_0_L1D_pq_forward 0
Core_0_L1D_pq_merged 0
Core_0_L1D_pq_to_cache 0
Core_0_L1D_pq_full 0

Core_0_L1D_acc_epochs 1377645
Core_0_L1D_acc_level_0 1377645
Core_0_L1D_acc_level_1 0
Core_0_L1D_acc_level_2 0
Core_0_L1D_acc_level_3 0
Core_0_L1D_acc_level_4 0
Core_0_L1D_acc_level_5 0
Core_0_L1D_acc_level_6 0
Core_0_L1D_acc_level_7 0
Core_0_L1D_acc_level_8 0
Core_0_L1D_acc_level_9 0

Core_0_L1I_total_access 100051832
Core_0_L1I_total_hit 98106886
Core_0_L1I_total_miss 1944946
Core_0_L1I_loads 100051832
Core_0_L1I_load_hit 98106886
Core_0_L1I_load_miss 1944946
Core_0_L1I_RFOs 0
Core_0_L1I_RFO_hit 0
Core_0_L1I_RFO_miss 0
Core_0_L1I_prefetches 0
Core_0_L1I_prefetch_hit 0
Core_0_L1I_prefetch_miss 0
Core_0_L1I_writebacks 0
Core_0_L1I_writeback_hit 0
Core_0_L1I_writeback_miss 0
Core_0_L1I_prefetch_requested 0
Core_0_L1I_prefetch_dropped 0
Core_0_L1I_prefetch_issued 0
Core_0_L1I_prefetch_filled 0
Core_0_L1I_prefetch_useful 0
Core_0_L1I_prefetch_useless 0
Core_0_L1I_prefetch_late 0
Core_0_L1I_average_miss_latency 12.25916

Core_0_L1I_rq_access 499999934
Core_0_L1I_rq_forward 0
Core_0_L1I_rq_merged 399235336
Core_0_L1I_rq_to_cache 100764598
Core_0_L1I_rq_full 0

Core_0_L1I_wq_access 0
Core_0_L1I_wq_forward 0
Core_0_L1I_wq_merged 0
Core_0_L1I_wq_to_cache 0
Core_0_L1I_wq_full 0

Core_0_L1I_pq_access 0
Core_0_L1I_pq_forward 0
Core_0_L1I_pq_merged 0
Core_0_L1I_pq_to_cache 0
Core_0_L1I_pq_full 0

Core_0_L1I_acc_epochs 1377645
Core_0_L1I_acc_level_0 1377645
Core_0_L1I_acc_level_1 0
Core_0_L1I_acc_level_2 0
Core_0_L1I_acc_level_3 0
Core_0_L1I_acc_level_4 0
Core_0_L1I_acc_level_5 0
Core_0_L1I_acc_level_6 0
Core_0_L1I_acc_level_7 0
Core_0_L1I_acc_level_8 0
Core_0_L1I_acc_level_9 0

Core_0_L2C_total_access 6577858
Core_0_L2C_total_hit 5200675
Core_0_L2C_total_miss 1377183
Core_0_L2C_loads 2774463
Core_0_L2C_load_hit 2542100
Core_0_L2C_load_miss 232363
Core_0_L2C_RFOs 1486048
Core_0_L2C_RFO_hit 602766
Core_0_L2C_RFO_miss 883282
Core_0_L2C_prefetches 563166
Core_0_L2C_prefetch_hit 304126
Core_0_L2C_prefetch_miss 259040
Core_0_L2C_writebacks 1754181
Core_0_L2C_writeback_hit 1751683
Core_0_L2C_writeback_miss 2498
Core_0_L2C_prefetch_requested 1393909
Core_0_L2C_prefetch_dropped 0
Core_0_L2C_prefetch_issued 1393909
Core_0_L2C_prefetch_filled 290501
Core_0_L2C_prefetch_useful 244738
Core_0_L2C_prefetch_useless 45513
Core_0_L2C_prefetch_late 3938
Core_0_L2C_average_miss_latency 315.98301

Core_0_L2C_rq_access 4260578
Core_0_L2C_rq_forward 0
Core_0_L2C_rq_merged 0
Core_0_L2C_rq_to_cache 4260511
Core_0_L2C_rq_full 0

Core_0_L2C_wq_access 1754181
Core_0_L2C_wq_forward 67
Core_0_L2C_wq_merged 0
Core_0_L2C_wq_to_cache 1754181
Core_0_L2C_wq_full 0

Core_0_L2C_pq_access 1393909
Core_0_L2C_pq_forward 0
Core_0_L2C_pq_merged 0
Core_0_L2C_pq_to_cache 1393909
Core_0_L2C_pq_full 0

Core_0_L2C_acc_epochs 1377645
Core_0_L2C_acc_level_0 1336459
Core_0_L2C_acc_level_1 13163
Core_0_L2C_acc_level_2 9053
Core_0_L2C_acc_level_3 3043
Core_0_L2C_acc_level_4 1496
Core_0_L2C_acc_level_5 6258
Core_0_L2C_acc_level_6 1210
Core_0_L2C_acc_level_7 1053
Core_0_L2C_acc_level_8 679
Core_0_L2C_acc_level_9 5231

Core_0_LLC_total_access 3083448
Core_0_LLC_total_hit 1132139
Core_0_LLC_total_miss 1951309
Core_0_LLC_loads 228533
Core_0_LLC_load_hit 149857
Core_0_LLC_load_miss 78676
Core_0_LLC_RFOs 883272
Core_0_LLC_RFO_hit 132324
Core_0_LLC_RFO_miss 750948
Core_0_LLC_prefetches 938093
Core_0_LLC_prefetch_hit 495924
Core_0_LLC_prefetch_miss 442169
Core_0_LLC_writebacks 1033550
Core_0_LLC_writeback_hit 354034
Core_0_LLC_writeback_miss 679516
Core_0_LLC_prefetch_requested 0
Core_0_LLC_prefetch_dropped 0
Core_0_LLC_prefetch_issued 0
Core_0_LLC_prefetch_filled 500618
Core_0_LLC_prefetch_useful 47978
Core_0_LLC_prefetch_useless 438314
Core_0_LLC_prefetch_late 78
Core_0_LLC_average_miss_latency 244.42364

Core_0_LLC_rq_access 1111810
Core_0_LLC_rq_forward 0
Core_0_LLC_rq_merged 0
Core_0_LLC_rq_to_cache 1111805
Core_0_LLC_rq_full 0

Core_0_LLC_wq_access 1033550
Core_0_LLC_wq_forward 5
Core_0_LLC_wq_merged 0
Core_0_LLC_wq_to_cache 1033550
Core_0_LLC_wq_full 0

Core_0_LLC_pq_access 1028762
Core_0_LLC_pq_forward 0
Core_0_LLC_pq_merged 0
Core_0_LLC_pq_to_cache 1028762
Core_0_LLC_pq_full 0

Core_0_LLC_acc_epochs 1379899
Core_0_LLC_acc_level_0 1348389
Core_0_LLC_acc_level_1 18539
Core_0_LLC_acc_level_2 7925
Core_0_LLC_acc_level_3 660
Core_0_LLC_acc_level_4 32
Core_0_LLC_acc_level_5 3758
Core_0_LLC_acc_level_6 21
Core_0_LLC_acc_level_7 67
Core_0_LLC_acc_level_8 13
Core_0_LLC_acc_level_9 495

Core_0_major_page_fault 0
Core_0_minor_page_fault 6639

[Bingo] PHT Access: 195877
[Bingo] PHT Hit PC+Addr: 64352
[Bingo] PHT Hit PC+Offs: 111064
[Bingo] PHT Miss: 20461
[Bingo] Prefetch PC+Addr: 0
[Bingo] Prefetch PC+Offs: 0
[Bingo] Useful PC+Addr: 0
[Bingo] Useful PC+Offs: 0
[Bingo] Useless PC+Addr: 0
[Bingo] Useless PC+Offs: 0
[Bingo] L1 Prefetch per Region: 0.00000
[Bingo] L2 Prefetch per Region: 4.60504
[Bingo] L3 Prefetch per Region: 4.34863
[Bingo] No Prefetch per Region: 23.04632
[Bingo] Number of Voters Mean: 6.50745
[Bingo] Number of Voters SD: 3.89351

Channel_0_RQ_row_buffer_hit 502782
Channel_0_RQ_row_buffer_miss 769009
Channel_0_WQ_row_buffer_hit 322482
Channel_0_WQ_row_buffer_miss 550520
Channel_0_WQ_full 77279
Channel_0_dbus_congested 914462

avg_congested_cycle 1

DRAM_bw_pochs 5519594
DRAM_bw_level_0 5511266
DRAM_bw_level_1 7697
DRAM_bw_level_2 623
DRAM_bw_level_3 8
