*************************************************
   ChampSim Multicore Out-of-Order Simulator
   Last compiled: Dec 11 2024 17:59:53
*************************************************
parsing config file: /home/functionmain/桌面/Pythia/config/bingo.ini

trace_0 /home/functionmain/桌面/Pythia/traces/445.gobmk-30B.champsimtrace.xz
adding L2C_PREFETCHER: Bingo
Initialize SHIP state
warmup_instructions 100000000
simulation_instructions 500000000
champsim_seed 165
measure_ipc 0
measure_ipc_epoch 1000
measure_dram_bw 1
measure_dram_bw_epoch 256
measure_cache_acc 1
measure_cache_acc_epoch 1024
l1d_perfect 0
l2c_perfect 0
llc_perfect 0
l1d_semi_perfect 0
l2c_semi_perfect 0
llc_semi_perfect 0
semi_perfect_cache_page_buffer_size 64

num_cpus 1
cpu_freq 4000
dram_io_freq 4800
page_size 4096
block_size 64
max_read_per_cycle 8
max_fill_per_cycle 1
dram_channels 1
log2_dram_channels 0
dram_ranks 1
dram_banks 8
dram_rows 65536
dram_columns 128
dram_row_size 8
dram_size 4096
dram_pages 1048576

fetch_width 6
decode_width 6
exec_width 4
lq_width 2
sq_width 2
retire_width 4
scheduler_size 128
branch_mispredict_penalty 20
rob_size 256
lq_size 72
sq_size 56
num_instr_destinations_sparc 4
num_instr_destinations 2
num_instr_sources 4

itlb_set 16
itlb_way 8
itlb_rq_size 16
itlb_wq_size 16
itlb_pq_size 0
itlb_mshr_size 8
itlb_latency 1

dtlb_set 16
dtlb_way 4
dtlb_rq_size 16
dtlb_wq_size 16
dtlb_pq_size 0
dtlb_mshr_size 8
dtlb_latency 1

stlb_set 128
stlb_way 12
stlb_rq_size 32
stlb_wq_size 32
stlb_pq_size 0
stlb_mshr_size 16
stlb_latency 8

l1i_size 32
l1i_set 64
l1i_way 8
l1i_rq_size 64
l1i_wq_size 64
l1i_pq_size 8
l1i_mshr_size 8
l1i_latency 1

l1d_size 32
l1d_set 64
l1d_way 8
l1d_rq_size 64
l1d_wq_size 64
l1d_pq_size 8
l1d_mshr_size 16
l1d_latency 4

l2c_size 256
l2c_set 512
l2c_way 8
l2c_rq_size 32
l2c_wq_size 32
l2c_pq_size 32
l2c_mshr_size 32
l2c_latency 10

llc_size 2048
llc_set 2048
llc_way 16
llc_rq_size 32
llc_wq_size 32
llc_pq_size 32
llc_mshr_size 64
llc_latency 20

dram_channel_width 8
dram_wq_size 64
dram_rq_size 64
tRP 15
tRCD 15
tCAS 12.5
dram_dbus_turn_around_time 30
dram_write_high_wm 56
dram_write_low_wm 48
min_dram_writes_per_switch 16
dram_mtps 4800
dram_dbus_return_time 6

bingo_region_size 2048
bingo_pattern_len 32
bingo_pc_width 16
bingo_min_addr_width 5
bingo_max_addr_width 16
bingo_ft_size 64
bingo_at_size 128
bingo_pht_size 4096
bingo_pht_ways 16
bingo_pf_streamer_size 128
bingo_debug_level 0
bingo_l1d_thresh 1.01
bingo_l2c_thresh 0.8
bingo_llc_thresh 0.05
bingo_pc_address_fill_level L2


Heartbeat CPU  0 instructions:    1000000 cycles:     861996 heartbeat IPC: 1.16010 cumulative IPC: 1.16010 (Simulation time: 0 hr 0 min 1 sec) 
Heartbeat CPU  0 instructions:    2000000 cycles:    1865282 heartbeat IPC: 0.99672 cumulative IPC: 1.07222 (Simulation time: 0 hr 0 min 2 sec) 
Heartbeat CPU  0 instructions:    3000001 cycles:    2991131 heartbeat IPC: 0.88822 cumulative IPC: 1.00297 (Simulation time: 0 hr 0 min 3 sec) 
Heartbeat CPU  0 instructions:    4000000 cycles:    4091971 heartbeat IPC: 0.90840 cumulative IPC: 0.97752 (Simulation time: 0 hr 0 min 4 sec) 
Heartbeat CPU  0 instructions:    5000001 cycles:    5174191 heartbeat IPC: 0.92403 cumulative IPC: 0.96633 (Simulation time: 0 hr 0 min 5 sec) 
Heartbeat CPU  0 instructions:    6000000 cycles:    6296948 heartbeat IPC: 0.89066 cumulative IPC: 0.95284 (Simulation time: 0 hr 0 min 6 sec) 
Heartbeat CPU  0 instructions:    7000001 cycles:    7364161 heartbeat IPC: 0.93702 cumulative IPC: 0.95055 (Simulation time: 0 hr 0 min 8 sec) 
Heartbeat CPU  0 instructions:    8000000 cycles:    8566901 heartbeat IPC: 0.83143 cumulative IPC: 0.93383 (Simulation time: 0 hr 0 min 9 sec) 
Heartbeat CPU  0 instructions:    9000000 cycles:    9686295 heartbeat IPC: 0.89334 cumulative IPC: 0.92915 (Simulation time: 0 hr 0 min 10 sec) 
Heartbeat CPU  0 instructions:   10000003 cycles:   10816029 heartbeat IPC: 0.88517 cumulative IPC: 0.92455 (Simulation time: 0 hr 0 min 11 sec) 
Heartbeat CPU  0 instructions:   11000000 cycles:   11873768 heartbeat IPC: 0.94541 cumulative IPC: 0.92641 (Simulation time: 0 hr 0 min 12 sec) 
Heartbeat CPU  0 instructions:   12000000 cycles:   13017867 heartbeat IPC: 0.87405 cumulative IPC: 0.92181 (Simulation time: 0 hr 0 min 14 sec) 
Heartbeat CPU  0 instructions:   13000001 cycles:   14157291 heartbeat IPC: 0.87764 cumulative IPC: 0.91825 (Simulation time: 0 hr 0 min 15 sec) 
Heartbeat CPU  0 instructions:   14000000 cycles:   15083986 heartbeat IPC: 1.07910 cumulative IPC: 0.92814 (Simulation time: 0 hr 0 min 16 sec) 
Heartbeat CPU  0 instructions:   15000001 cycles:   16047848 heartbeat IPC: 1.03749 cumulative IPC: 0.93470 (Simulation time: 0 hr 0 min 17 sec) 
Heartbeat CPU  0 instructions:   16000000 cycles:   17176785 heartbeat IPC: 0.88579 cumulative IPC: 0.93149 (Simulation time: 0 hr 0 min 18 sec) 
Heartbeat CPU  0 instructions:   17000000 cycles:   18272241 heartbeat IPC: 0.91286 cumulative IPC: 0.93037 (Simulation time: 0 hr 0 min 19 sec) 
Heartbeat CPU  0 instructions:   18000003 cycles:   19388636 heartbeat IPC: 0.89574 cumulative IPC: 0.92838 (Simulation time: 0 hr 0 min 20 sec) 
Heartbeat CPU  0 instructions:   19000001 cycles:   20469770 heartbeat IPC: 0.92495 cumulative IPC: 0.92820 (Simulation time: 0 hr 0 min 22 sec) 
Heartbeat CPU  0 instructions:   20000000 cycles:   21561528 heartbeat IPC: 0.91595 cumulative IPC: 0.92758 (Simulation time: 0 hr 0 min 23 sec) 
Heartbeat CPU  0 instructions:   21000000 cycles:   22753945 heartbeat IPC: 0.83863 cumulative IPC: 0.92292 (Simulation time: 0 hr 0 min 24 sec) 
Heartbeat CPU  0 instructions:   22000003 cycles:   23881250 heartbeat IPC: 0.88707 cumulative IPC: 0.92122 (Simulation time: 0 hr 0 min 25 sec) 
Heartbeat CPU  0 instructions:   23000001 cycles:   24931321 heartbeat IPC: 0.95231 cumulative IPC: 0.92253 (Simulation time: 0 hr 0 min 26 sec) 
Heartbeat CPU  0 instructions:   24000000 cycles:   26048077 heartbeat IPC: 0.89545 cumulative IPC: 0.92137 (Simulation time: 0 hr 0 min 27 sec) 
Heartbeat CPU  0 instructions:   25000000 cycles:   26927319 heartbeat IPC: 1.13734 cumulative IPC: 0.92843 (Simulation time: 0 hr 0 min 28 sec) 
Heartbeat CPU  0 instructions:   26000000 cycles:   27897198 heartbeat IPC: 1.03106 cumulative IPC: 0.93199 (Simulation time: 0 hr 0 min 30 sec) 
Heartbeat CPU  0 instructions:   27000002 cycles:   28999784 heartbeat IPC: 0.90696 cumulative IPC: 0.93104 (Simulation time: 0 hr 0 min 31 sec) 
Heartbeat CPU  0 instructions:   28000000 cycles:   30120406 heartbeat IPC: 0.89236 cumulative IPC: 0.92960 (Simulation time: 0 hr 0 min 32 sec) 
Heartbeat CPU  0 instructions:   29000003 cycles:   31186383 heartbeat IPC: 0.93811 cumulative IPC: 0.92989 (Simulation time: 0 hr 0 min 33 sec) 
Heartbeat CPU  0 instructions:   30000002 cycles:   32278854 heartbeat IPC: 0.91536 cumulative IPC: 0.92940 (Simulation time: 0 hr 0 min 34 sec) 
Heartbeat CPU  0 instructions:   31000003 cycles:   33381194 heartbeat IPC: 0.90716 cumulative IPC: 0.92867 (Simulation time: 0 hr 0 min 35 sec) 
Heartbeat CPU  0 instructions:   32000000 cycles:   34480846 heartbeat IPC: 0.90938 cumulative IPC: 0.92805 (Simulation time: 0 hr 0 min 37 sec) 
Heartbeat CPU  0 instructions:   33000001 cycles:   35468056 heartbeat IPC: 1.01296 cumulative IPC: 0.93041 (Simulation time: 0 hr 0 min 38 sec) 
Heartbeat CPU  0 instructions:   34000001 cycles:   36605876 heartbeat IPC: 0.87887 cumulative IPC: 0.92881 (Simulation time: 0 hr 0 min 39 sec) 
Heartbeat CPU  0 instructions:   35000003 cycles:   37678083 heartbeat IPC: 0.93266 cumulative IPC: 0.92892 (Simulation time: 0 hr 0 min 40 sec) 
Heartbeat CPU  0 instructions:   36000000 cycles:   38869642 heartbeat IPC: 0.83923 cumulative IPC: 0.92617 (Simulation time: 0 hr 0 min 41 sec) 
Heartbeat CPU  0 instructions:   37000002 cycles:   39985602 heartbeat IPC: 0.89609 cumulative IPC: 0.92533 (Simulation time: 0 hr 0 min 43 sec) 
Heartbeat CPU  0 instructions:   38000000 cycles:   41035516 heartbeat IPC: 0.95246 cumulative IPC: 0.92603 (Simulation time: 0 hr 0 min 44 sec) 
Heartbeat CPU  0 instructions:   39000001 cycles:   41929036 heartbeat IPC: 1.11917 cumulative IPC: 0.93014 (Simulation time: 0 hr 0 min 45 sec) 
Heartbeat CPU  0 instructions:   40000000 cycles:   42886664 heartbeat IPC: 1.04425 cumulative IPC: 0.93269 (Simulation time: 0 hr 0 min 46 sec) 
Heartbeat CPU  0 instructions:   41000000 cycles:   43987929 heartbeat IPC: 0.90805 cumulative IPC: 0.93207 (Simulation time: 0 hr 0 min 47 sec) 
Heartbeat CPU  0 instructions:   42000000 cycles:   45112893 heartbeat IPC: 0.88892 cumulative IPC: 0.93100 (Simulation time: 0 hr 0 min 48 sec) 
Heartbeat CPU  0 instructions:   43000003 cycles:   46180465 heartbeat IPC: 0.93671 cumulative IPC: 0.93113 (Simulation time: 0 hr 0 min 49 sec) 
Heartbeat CPU  0 instructions:   44000000 cycles:   47300354 heartbeat IPC: 0.89294 cumulative IPC: 0.93023 (Simulation time: 0 hr 0 min 51 sec) 
Heartbeat CPU  0 instructions:   45000001 cycles:   48334061 heartbeat IPC: 0.96739 cumulative IPC: 0.93102 (Simulation time: 0 hr 0 min 52 sec) 
Heartbeat CPU  0 instructions:   46000000 cycles:   49420408 heartbeat IPC: 0.92052 cumulative IPC: 0.93079 (Simulation time: 0 hr 0 min 53 sec) 
Heartbeat CPU  0 instructions:   47000003 cycles:   50528643 heartbeat IPC: 0.90234 cumulative IPC: 0.93017 (Simulation time: 0 hr 0 min 54 sec) 
Heartbeat CPU  0 instructions:   48000000 cycles:   51497798 heartbeat IPC: 1.03182 cumulative IPC: 0.93208 (Simulation time: 0 hr 0 min 55 sec) 
Heartbeat CPU  0 instructions:   49000000 cycles:   52612276 heartbeat IPC: 0.89728 cumulative IPC: 0.93134 (Simulation time: 0 hr 0 min 57 sec) 
Heartbeat CPU  0 instructions:   50000000 cycles:   53696262 heartbeat IPC: 0.92252 cumulative IPC: 0.93116 (Simulation time: 0 hr 0 min 58 sec) 
Heartbeat CPU  0 instructions:   51000001 cycles:   54763593 heartbeat IPC: 0.93692 cumulative IPC: 0.93128 (Simulation time: 0 hr 0 min 59 sec) 
Heartbeat CPU  0 instructions:   52000000 cycles:   55893233 heartbeat IPC: 0.88524 cumulative IPC: 0.93035 (Simulation time: 0 hr 1 min 0 sec) 
Heartbeat CPU  0 instructions:   53000000 cycles:   56999703 heartbeat IPC: 0.90378 cumulative IPC: 0.92983 (Simulation time: 0 hr 1 min 1 sec) 
Heartbeat CPU  0 instructions:   54000001 cycles:   58196308 heartbeat IPC: 0.83570 cumulative IPC: 0.92789 (Simulation time: 0 hr 1 min 2 sec) 
Heartbeat CPU  0 instructions:   55000002 cycles:   59315929 heartbeat IPC: 0.89316 cumulative IPC: 0.92724 (Simulation time: 0 hr 1 min 4 sec) 
Heartbeat CPU  0 instructions:   56000000 cycles:   60381724 heartbeat IPC: 0.93826 cumulative IPC: 0.92743 (Simulation time: 0 hr 1 min 5 sec) 
Heartbeat CPU  0 instructions:   57000000 cycles:   61469733 heartbeat IPC: 0.91911 cumulative IPC: 0.92729 (Simulation time: 0 hr 1 min 6 sec) 
Heartbeat CPU  0 instructions:   58000001 cycles:   62558977 heartbeat IPC: 0.91807 cumulative IPC: 0.92713 (Simulation time: 0 hr 1 min 7 sec) 
Heartbeat CPU  0 instructions:   59000000 cycles:   63433698 heartbeat IPC: 1.14322 cumulative IPC: 0.93011 (Simulation time: 0 hr 1 min 8 sec) 
Heartbeat CPU  0 instructions:   60000000 cycles:   64552457 heartbeat IPC: 0.89385 cumulative IPC: 0.92948 (Simulation time: 0 hr 1 min 9 sec) 
Heartbeat CPU  0 instructions:   61000000 cycles:   65648632 heartbeat IPC: 0.91226 cumulative IPC: 0.92919 (Simulation time: 0 hr 1 min 10 sec) 
Heartbeat CPU  0 instructions:   62000000 cycles:   66726848 heartbeat IPC: 0.92746 cumulative IPC: 0.92916 (Simulation time: 0 hr 1 min 12 sec) 
Heartbeat CPU  0 instructions:   63000001 cycles:   67744135 heartbeat IPC: 0.98301 cumulative IPC: 0.92997 (Simulation time: 0 hr 1 min 13 sec) 
Heartbeat CPU  0 instructions:   64000000 cycles:   68866594 heartbeat IPC: 0.89090 cumulative IPC: 0.92933 (Simulation time: 0 hr 1 min 14 sec) 
Heartbeat CPU  0 instructions:   65000000 cycles:   69942018 heartbeat IPC: 0.92987 cumulative IPC: 0.92934 (Simulation time: 0 hr 1 min 15 sec) 
Heartbeat CPU  0 instructions:   66000000 cycles:   70998874 heartbeat IPC: 0.94620 cumulative IPC: 0.92959 (Simulation time: 0 hr 1 min 16 sec) 
Heartbeat CPU  0 instructions:   67000000 cycles:   72112409 heartbeat IPC: 0.89804 cumulative IPC: 0.92910 (Simulation time: 0 hr 1 min 18 sec) 
Heartbeat CPU  0 instructions:   68000000 cycles:   73200753 heartbeat IPC: 0.91883 cumulative IPC: 0.92895 (Simulation time: 0 hr 1 min 19 sec) 
Heartbeat CPU  0 instructions:   69000001 cycles:   74309369 heartbeat IPC: 0.90203 cumulative IPC: 0.92855 (Simulation time: 0 hr 1 min 20 sec) 
Heartbeat CPU  0 instructions:   70000000 cycles:   75282262 heartbeat IPC: 1.02786 cumulative IPC: 0.92983 (Simulation time: 0 hr 1 min 21 sec) 
Heartbeat CPU  0 instructions:   71000000 cycles:   76197242 heartbeat IPC: 1.09292 cumulative IPC: 0.93179 (Simulation time: 0 hr 1 min 22 sec) 
Heartbeat CPU  0 instructions:   72000000 cycles:   77296667 heartbeat IPC: 0.90957 cumulative IPC: 0.93148 (Simulation time: 0 hr 1 min 24 sec) 
Heartbeat CPU  0 instructions:   73000001 cycles:   78358716 heartbeat IPC: 0.94158 cumulative IPC: 0.93161 (Simulation time: 0 hr 1 min 25 sec) 
Heartbeat CPU  0 instructions:   74000000 cycles:   79425569 heartbeat IPC: 0.93734 cumulative IPC: 0.93169 (Simulation time: 0 hr 1 min 26 sec) 
Heartbeat CPU  0 instructions:   75000001 cycles:   80368100 heartbeat IPC: 1.06097 cumulative IPC: 0.93321 (Simulation time: 0 hr 1 min 27 sec) 
Heartbeat CPU  0 instructions:   76000000 cycles:   81356122 heartbeat IPC: 1.01212 cumulative IPC: 0.93416 (Simulation time: 0 hr 1 min 28 sec) 
Heartbeat CPU  0 instructions:   77000002 cycles:   82397778 heartbeat IPC: 0.96001 cumulative IPC: 0.93449 (Simulation time: 0 hr 1 min 30 sec) 
Heartbeat CPU  0 instructions:   78000000 cycles:   83348974 heartbeat IPC: 1.05131 cumulative IPC: 0.93582 (Simulation time: 0 hr 1 min 31 sec) 
Heartbeat CPU  0 instructions:   79000003 cycles:   84379587 heartbeat IPC: 0.97030 cumulative IPC: 0.93625 (Simulation time: 0 hr 1 min 32 sec) 
Heartbeat CPU  0 instructions:   80000000 cycles:   85445914 heartbeat IPC: 0.93780 cumulative IPC: 0.93626 (Simulation time: 0 hr 1 min 33 sec) 
Heartbeat CPU  0 instructions:   81000003 cycles:   86534308 heartbeat IPC: 0.91879 cumulative IPC: 0.93604 (Simulation time: 0 hr 1 min 34 sec) 
Heartbeat CPU  0 instructions:   82000000 cycles:   87609199 heartbeat IPC: 0.93032 cumulative IPC: 0.93597 (Simulation time: 0 hr 1 min 36 sec) 
Heartbeat CPU  0 instructions:   83000001 cycles:   88708400 heartbeat IPC: 0.90975 cumulative IPC: 0.93565 (Simulation time: 0 hr 1 min 37 sec) 
Heartbeat CPU  0 instructions:   84000000 cycles:   89747352 heartbeat IPC: 0.96251 cumulative IPC: 0.93596 (Simulation time: 0 hr 1 min 38 sec) 
Heartbeat CPU  0 instructions:   85000000 cycles:   90746930 heartbeat IPC: 1.00042 cumulative IPC: 0.93667 (Simulation time: 0 hr 1 min 39 sec) 
Heartbeat CPU  0 instructions:   86000000 cycles:   91832949 heartbeat IPC: 0.92079 cumulative IPC: 0.93648 (Simulation time: 0 hr 1 min 40 sec) 
Heartbeat CPU  0 instructions:   87000002 cycles:   92919708 heartbeat IPC: 0.92017 cumulative IPC: 0.93629 (Simulation time: 0 hr 1 min 42 sec) 
Heartbeat CPU  0 instructions:   88000000 cycles:   93989826 heartbeat IPC: 0.93447 cumulative IPC: 0.93627 (Simulation time: 0 hr 1 min 43 sec) 
Heartbeat CPU  0 instructions:   89000002 cycles:   95089035 heartbeat IPC: 0.90975 cumulative IPC: 0.93596 (Simulation time: 0 hr 1 min 44 sec) 
Heartbeat CPU  0 instructions:   90000002 cycles:   96176386 heartbeat IPC: 0.91967 cumulative IPC: 0.93578 (Simulation time: 0 hr 1 min 45 sec) 
Heartbeat CPU  0 instructions:   91000001 cycles:   97242854 heartbeat IPC: 0.93767 cumulative IPC: 0.93580 (Simulation time: 0 hr 1 min 46 sec) 
Heartbeat CPU  0 instructions:   92000000 cycles:   98361584 heartbeat IPC: 0.89387 cumulative IPC: 0.93532 (Simulation time: 0 hr 1 min 48 sec) 
Heartbeat CPU  0 instructions:   93000000 cycles:   99400876 heartbeat IPC: 0.96219 cumulative IPC: 0.93561 (Simulation time: 0 hr 1 min 49 sec) 
Heartbeat CPU  0 instructions:   94000001 cycles:  100519052 heartbeat IPC: 0.89431 cumulative IPC: 0.93515 (Simulation time: 0 hr 1 min 50 sec) 
Heartbeat CPU  0 instructions:   95000001 cycles:  101611020 heartbeat IPC: 0.91578 cumulative IPC: 0.93494 (Simulation time: 0 hr 1 min 51 sec) 
Heartbeat CPU  0 instructions:   96000000 cycles:  102700700 heartbeat IPC: 0.91770 cumulative IPC: 0.93476 (Simulation time: 0 hr 1 min 52 sec) 
Heartbeat CPU  0 instructions:   97000001 cycles:  103828895 heartbeat IPC: 0.88637 cumulative IPC: 0.93423 (Simulation time: 0 hr 1 min 53 sec) 
Heartbeat CPU  0 instructions:   98000000 cycles:  104927582 heartbeat IPC: 0.91018 cumulative IPC: 0.93398 (Simulation time: 0 hr 1 min 55 sec) 
Heartbeat CPU  0 instructions:   99000003 cycles:  105999090 heartbeat IPC: 0.93327 cumulative IPC: 0.93397 (Simulation time: 0 hr 1 min 56 sec) 
Heartbeat CPU  0 instructions:  100000000 cycles:  107084525 heartbeat IPC: 0.92129 cumulative IPC: 0.93384 (Simulation time: 0 hr 1 min 57 sec) 

Warmup complete CPU  0 instructions:  100000001 cycles:  107084527 (Simulation time: 0 hr 1 min 57 sec) 

Heartbeat CPU  0 instructions:  101000000 cycles:  109755004 heartbeat IPC: 0.37446 cumulative IPC: 0.37446 (Simulation time: 0 hr 1 min 59 sec) 
Heartbeat CPU  0 instructions:  102000000 cycles:  112405049 heartbeat IPC: 0.37735 cumulative IPC: 0.37590 (Simulation time: 0 hr 2 min 1 sec) 
Heartbeat CPU  0 instructions:  103000000 cycles:  115057874 heartbeat IPC: 0.37696 cumulative IPC: 0.37625 (Simulation time: 0 hr 2 min 2 sec) 
Heartbeat CPU  0 instructions:  104000000 cycles:  117621511 heartbeat IPC: 0.39007 cumulative IPC: 0.37962 (Simulation time: 0 hr 2 min 4 sec) 
Heartbeat CPU  0 instructions:  105000003 cycles:  120352156 heartbeat IPC: 0.36621 cumulative IPC: 0.37686 (Simulation time: 0 hr 2 min 6 sec) 
Heartbeat CPU  0 instructions:  106000001 cycles:  123042029 heartbeat IPC: 0.37176 cumulative IPC: 0.37600 (Simulation time: 0 hr 2 min 8 sec) 
Heartbeat CPU  0 instructions:  107000003 cycles:  125735829 heartbeat IPC: 0.37122 cumulative IPC: 0.37531 (Simulation time: 0 hr 2 min 10 sec) 
Heartbeat CPU  0 instructions:  108000000 cycles:  128552225 heartbeat IPC: 0.35506 cumulative IPC: 0.37265 (Simulation time: 0 hr 2 min 12 sec) 
Heartbeat CPU  0 instructions:  109000000 cycles:  131343460 heartbeat IPC: 0.35826 cumulative IPC: 0.37100 (Simulation time: 0 hr 2 min 14 sec) 
Heartbeat CPU  0 instructions:  110000002 cycles:  134017470 heartbeat IPC: 0.37397 cumulative IPC: 0.37129 (Simulation time: 0 hr 2 min 16 sec) 
Heartbeat CPU  0 instructions:  111000002 cycles:  136593383 heartbeat IPC: 0.38821 cumulative IPC: 0.37277 (Simulation time: 0 hr 2 min 17 sec) 
Heartbeat CPU  0 instructions:  112000000 cycles:  139342591 heartbeat IPC: 0.36374 cumulative IPC: 0.37200 (Simulation time: 0 hr 2 min 19 sec) 
Heartbeat CPU  0 instructions:  113000001 cycles:  142193200 heartbeat IPC: 0.35080 cumulative IPC: 0.37028 (Simulation time: 0 hr 2 min 21 sec) 
Heartbeat CPU  0 instructions:  114000000 cycles:  145013137 heartbeat IPC: 0.35462 cumulative IPC: 0.36911 (Simulation time: 0 hr 2 min 23 sec) 
Heartbeat CPU  0 instructions:  115000000 cycles:  147716880 heartbeat IPC: 0.36986 cumulative IPC: 0.36916 (Simulation time: 0 hr 2 min 25 sec) 
Heartbeat CPU  0 instructions:  116000000 cycles:  150476757 heartbeat IPC: 0.36233 cumulative IPC: 0.36873 (Simulation time: 0 hr 2 min 27 sec) 
Heartbeat CPU  0 instructions:  117000002 cycles:  153199056 heartbeat IPC: 0.36734 cumulative IPC: 0.36865 (Simulation time: 0 hr 2 min 29 sec) 
Heartbeat CPU  0 instructions:  118000000 cycles:  155940424 heartbeat IPC: 0.36478 cumulative IPC: 0.36843 (Simulation time: 0 hr 2 min 31 sec) 
Heartbeat CPU  0 instructions:  119000000 cycles:  158693076 heartbeat IPC: 0.36329 cumulative IPC: 0.36816 (Simulation time: 0 hr 2 min 33 sec) 
Heartbeat CPU  0 instructions:  120000000 cycles:  161519863 heartbeat IPC: 0.35376 cumulative IPC: 0.36741 (Simulation time: 0 hr 2 min 34 sec) 
Heartbeat CPU  0 instructions:  121000000 cycles:  164226708 heartbeat IPC: 0.36943 cumulative IPC: 0.36750 (Simulation time: 0 hr 2 min 36 sec) 
Heartbeat CPU  0 instructions:  122000001 cycles:  166970461 heartbeat IPC: 0.36446 cumulative IPC: 0.36737 (Simulation time: 0 hr 2 min 38 sec) 
Heartbeat CPU  0 instructions:  123000001 cycles:  169655418 heartbeat IPC: 0.37245 cumulative IPC: 0.36758 (Simulation time: 0 hr 2 min 40 sec) 
Heartbeat CPU  0 instructions:  124000000 cycles:  172291192 heartbeat IPC: 0.37939 cumulative IPC: 0.36806 (Simulation time: 0 hr 2 min 42 sec) 
Heartbeat CPU  0 instructions:  125000003 cycles:  174918969 heartbeat IPC: 0.38055 cumulative IPC: 0.36854 (Simulation time: 0 hr 2 min 44 sec) 
Heartbeat CPU  0 instructions:  126000000 cycles:  177569876 heartbeat IPC: 0.37723 cumulative IPC: 0.36887 (Simulation time: 0 hr 2 min 46 sec) 
Heartbeat CPU  0 instructions:  127000001 cycles:  180427408 heartbeat IPC: 0.34995 cumulative IPC: 0.36813 (Simulation time: 0 hr 2 min 48 sec) 
Heartbeat CPU  0 instructions:  128000000 cycles:  183131396 heartbeat IPC: 0.36982 cumulative IPC: 0.36819 (Simulation time: 0 hr 2 min 49 sec) 
Heartbeat CPU  0 instructions:  129000001 cycles:  185969767 heartbeat IPC: 0.35232 cumulative IPC: 0.36762 (Simulation time: 0 hr 2 min 51 sec) 
Heartbeat CPU  0 instructions:  130000000 cycles:  188814675 heartbeat IPC: 0.35150 cumulative IPC: 0.36706 (Simulation time: 0 hr 2 min 53 sec) 
Heartbeat CPU  0 instructions:  131000000 cycles:  191548611 heartbeat IPC: 0.36577 cumulative IPC: 0.36702 (Simulation time: 0 hr 2 min 55 sec) 
Heartbeat CPU  0 instructions:  132000000 cycles:  194294350 heartbeat IPC: 0.36420 cumulative IPC: 0.36693 (Simulation time: 0 hr 2 min 57 sec) 
Heartbeat CPU  0 instructions:  133000001 cycles:  196995787 heartbeat IPC: 0.37017 cumulative IPC: 0.36703 (Simulation time: 0 hr 2 min 59 sec) 
Heartbeat CPU  0 instructions:  134000000 cycles:  199742454 heartbeat IPC: 0.36408 cumulative IPC: 0.36694 (Simulation time: 0 hr 3 min 1 sec) 
Heartbeat CPU  0 instructions:  135000000 cycles:  202520361 heartbeat IPC: 0.35998 cumulative IPC: 0.36674 (Simulation time: 0 hr 3 min 3 sec) 
Heartbeat CPU  0 instructions:  136000000 cycles:  205289930 heartbeat IPC: 0.36107 cumulative IPC: 0.36658 (Simulation time: 0 hr 3 min 5 sec) 
Heartbeat CPU  0 instructions:  137000000 cycles:  208009134 heartbeat IPC: 0.36775 cumulative IPC: 0.36661 (Simulation time: 0 hr 3 min 6 sec) 
Heartbeat CPU  0 instructions:  138000000 cycles:  210608427 heartbeat IPC: 0.38472 cumulative IPC: 0.36706 (Simulation time: 0 hr 3 min 8 sec) 
Heartbeat CPU  0 instructions:  139000002 cycles:  213265097 heartbeat IPC: 0.37641 cumulative IPC: 0.36730 (Simulation time: 0 hr 3 min 10 sec) 
Heartbeat CPU  0 instructions:  140000000 cycles:  216003833 heartbeat IPC: 0.36513 cumulative IPC: 0.36724 (Simulation time: 0 hr 3 min 12 sec) 
Heartbeat CPU  0 instructions:  141000003 cycles:  218733241 heartbeat IPC: 0.36638 cumulative IPC: 0.36722 (Simulation time: 0 hr 3 min 14 sec) 
Heartbeat CPU  0 instructions:  142000000 cycles:  221400460 heartbeat IPC: 0.37492 cumulative IPC: 0.36740 (Simulation time: 0 hr 3 min 16 sec) 
Heartbeat CPU  0 instructions:  143000001 cycles:  224044931 heartbeat IPC: 0.37815 cumulative IPC: 0.36765 (Simulation time: 0 hr 3 min 18 sec) 
Heartbeat CPU  0 instructions:  144000000 cycles:  225565761 heartbeat IPC: 0.65754 cumulative IPC: 0.37137 (Simulation time: 0 hr 3 min 20 sec) 
Heartbeat CPU  0 instructions:  145000002 cycles:  226466504 heartbeat IPC: 1.11020 cumulative IPC: 0.37694 (Simulation time: 0 hr 3 min 22 sec) 
Heartbeat CPU  0 instructions:  146000000 cycles:  227075270 heartbeat IPC: 1.64266 cumulative IPC: 0.38336 (Simulation time: 0 hr 3 min 23 sec) 
Heartbeat CPU  0 instructions:  147000000 cycles:  227834228 heartbeat IPC: 1.31760 cumulative IPC: 0.38923 (Simulation time: 0 hr 3 min 25 sec) 
Heartbeat CPU  0 instructions:  148000000 cycles:  228704648 heartbeat IPC: 1.14887 cumulative IPC: 0.39467 (Simulation time: 0 hr 3 min 27 sec) 
Heartbeat CPU  0 instructions:  149000000 cycles:  230235134 heartbeat IPC: 0.65339 cumulative IPC: 0.39789 (Simulation time: 0 hr 3 min 30 sec) 
Heartbeat CPU  0 instructions:  150000000 cycles:  231825474 heartbeat IPC: 0.62880 cumulative IPC: 0.40083 (Simulation time: 0 hr 3 min 32 sec) 
Heartbeat CPU  0 instructions:  151000001 cycles:  233446117 heartbeat IPC: 0.61704 cumulative IPC: 0.40360 (Simulation time: 0 hr 3 min 35 sec) 
Heartbeat CPU  0 instructions:  152000000 cycles:  235386760 heartbeat IPC: 0.51529 cumulative IPC: 0.40529 (Simulation time: 0 hr 3 min 38 sec) 
Heartbeat CPU  0 instructions:  153000000 cycles:  237691674 heartbeat IPC: 0.43386 cumulative IPC: 0.40580 (Simulation time: 0 hr 3 min 41 sec) 
Heartbeat CPU  0 instructions:  154000003 cycles:  240079666 heartbeat IPC: 0.41876 cumulative IPC: 0.40603 (Simulation time: 0 hr 3 min 44 sec) 
Heartbeat CPU  0 instructions:  155000003 cycles:  241379923 heartbeat IPC: 0.76908 cumulative IPC: 0.40954 (Simulation time: 0 hr 3 min 46 sec) 
Heartbeat CPU  0 instructions:  156000000 cycles:  242223689 heartbeat IPC: 1.18516 cumulative IPC: 0.41439 (Simulation time: 0 hr 3 min 48 sec) 
Heartbeat CPU  0 instructions:  157000001 cycles:  243050827 heartbeat IPC: 1.20899 cumulative IPC: 0.41922 (Simulation time: 0 hr 3 min 50 sec) 
Heartbeat CPU  0 instructions:  158000002 cycles:  243918599 heartbeat IPC: 1.15238 cumulative IPC: 0.42387 (Simulation time: 0 hr 3 min 52 sec) 
Heartbeat CPU  0 instructions:  159000002 cycles:  245541367 heartbeat IPC: 0.61623 cumulative IPC: 0.42613 (Simulation time: 0 hr 3 min 54 sec) 
Heartbeat CPU  0 instructions:  160000000 cycles:  247142452 heartbeat IPC: 0.62458 cumulative IPC: 0.42839 (Simulation time: 0 hr 3 min 57 sec) 
Heartbeat CPU  0 instructions:  161000003 cycles:  248751731 heartbeat IPC: 0.62140 cumulative IPC: 0.43059 (Simulation time: 0 hr 4 min 0 sec) 
Heartbeat CPU  0 instructions:  162000000 cycles:  250915278 heartbeat IPC: 0.46220 cumulative IPC: 0.43106 (Simulation time: 0 hr 4 min 2 sec) 
Heartbeat CPU  0 instructions:  163000002 cycles:  253257577 heartbeat IPC: 0.42693 cumulative IPC: 0.43100 (Simulation time: 0 hr 4 min 6 sec) 
Heartbeat CPU  0 instructions:  164000000 cycles:  255662382 heartbeat IPC: 0.41583 cumulative IPC: 0.43075 (Simulation time: 0 hr 4 min 8 sec) 
Heartbeat CPU  0 instructions:  165000003 cycles:  258219183 heartbeat IPC: 0.39111 cumulative IPC: 0.43008 (Simulation time: 0 hr 4 min 10 sec) 
Heartbeat CPU  0 instructions:  166000000 cycles:  261048601 heartbeat IPC: 0.35343 cumulative IPC: 0.42867 (Simulation time: 0 hr 4 min 12 sec) 
Heartbeat CPU  0 instructions:  167000002 cycles:  263826718 heartbeat IPC: 0.35996 cumulative IPC: 0.42745 (Simulation time: 0 hr 4 min 14 sec) 
Heartbeat CPU  0 instructions:  168000000 cycles:  266595375 heartbeat IPC: 0.36119 cumulative IPC: 0.42630 (Simulation time: 0 hr 4 min 16 sec) 
Heartbeat CPU  0 instructions:  169000000 cycles:  269401867 heartbeat IPC: 0.35632 cumulative IPC: 0.42509 (Simulation time: 0 hr 4 min 18 sec) 
Heartbeat CPU  0 instructions:  170000003 cycles:  272183792 heartbeat IPC: 0.35946 cumulative IPC: 0.42399 (Simulation time: 0 hr 4 min 20 sec) 
Heartbeat CPU  0 instructions:  171000000 cycles:  274887854 heartbeat IPC: 0.36981 cumulative IPC: 0.42311 (Simulation time: 0 hr 4 min 22 sec) 
Heartbeat CPU  0 instructions:  172000000 cycles:  277661670 heartbeat IPC: 0.36051 cumulative IPC: 0.42210 (Simulation time: 0 hr 4 min 24 sec) 
Heartbeat CPU  0 instructions:  173000000 cycles:  280349487 heartbeat IPC: 0.37205 cumulative IPC: 0.42132 (Simulation time: 0 hr 4 min 26 sec) 
Heartbeat CPU  0 instructions:  174000000 cycles:  283123870 heartbeat IPC: 0.36044 cumulative IPC: 0.42036 (Simulation time: 0 hr 4 min 27 sec) 
Heartbeat CPU  0 instructions:  175000001 cycles:  285890279 heartbeat IPC: 0.36148 cumulative IPC: 0.41945 (Simulation time: 0 hr 4 min 29 sec) 
Heartbeat CPU  0 instructions:  176000000 cycles:  288668764 heartbeat IPC: 0.35991 cumulative IPC: 0.41854 (Simulation time: 0 hr 4 min 31 sec) 
Heartbeat CPU  0 instructions:  177000000 cycles:  291444015 heartbeat IPC: 0.36033 cumulative IPC: 0.41766 (Simulation time: 0 hr 4 min 33 sec) 
Heartbeat CPU  0 instructions:  178000001 cycles:  294161536 heartbeat IPC: 0.36798 cumulative IPC: 0.41694 (Simulation time: 0 hr 4 min 35 sec) 
Heartbeat CPU  0 instructions:  179000003 cycles:  296768826 heartbeat IPC: 0.38354 cumulative IPC: 0.41648 (Simulation time: 0 hr 4 min 37 sec) 
Heartbeat CPU  0 instructions:  180000000 cycles:  299511142 heartbeat IPC: 0.36465 cumulative IPC: 0.41574 (Simulation time: 0 hr 4 min 39 sec) 
Heartbeat CPU  0 instructions:  181000000 cycles:  301997335 heartbeat IPC: 0.40222 cumulative IPC: 0.41557 (Simulation time: 0 hr 4 min 41 sec) 
Heartbeat CPU  0 instructions:  182000000 cycles:  304677898 heartbeat IPC: 0.37306 cumulative IPC: 0.41499 (Simulation time: 0 hr 4 min 42 sec) 
Heartbeat CPU  0 instructions:  183000000 cycles:  307251794 heartbeat IPC: 0.38852 cumulative IPC: 0.41465 (Simulation time: 0 hr 4 min 44 sec) 
Heartbeat CPU  0 instructions:  184000000 cycles:  309724618 heartbeat IPC: 0.40440 cumulative IPC: 0.41453 (Simulation time: 0 hr 4 min 46 sec) 
Heartbeat CPU  0 instructions:  185000000 cycles:  312335601 heartbeat IPC: 0.38300 cumulative IPC: 0.41413 (Simulation time: 0 hr 4 min 48 sec) 
Heartbeat CPU  0 instructions:  186000000 cycles:  315035128 heartbeat IPC: 0.37044 cumulative IPC: 0.41356 (Simulation time: 0 hr 4 min 50 sec) 
Heartbeat CPU  0 instructions:  187000000 cycles:  317610043 heartbeat IPC: 0.38836 cumulative IPC: 0.41325 (Simulation time: 0 hr 4 min 52 sec) 
Heartbeat CPU  0 instructions:  188000000 cycles:  319997339 heartbeat IPC: 0.41888 cumulative IPC: 0.41331 (Simulation time: 0 hr 4 min 54 sec) 
Heartbeat CPU  0 instructions:  189000000 cycles:  322632330 heartbeat IPC: 0.37951 cumulative IPC: 0.41290 (Simulation time: 0 hr 4 min 55 sec) 
Heartbeat CPU  0 instructions:  190000000 cycles:  325181361 heartbeat IPC: 0.39231 cumulative IPC: 0.41266 (Simulation time: 0 hr 4 min 57 sec) 
Heartbeat CPU  0 instructions:  191000001 cycles:  327795490 heartbeat IPC: 0.38254 cumulative IPC: 0.41230 (Simulation time: 0 hr 4 min 59 sec) 
Heartbeat CPU  0 instructions:  192000000 cycles:  330381605 heartbeat IPC: 0.38668 cumulative IPC: 0.41201 (Simulation time: 0 hr 5 min 1 sec) 
Heartbeat CPU  0 instructions:  193000001 cycles:  332918906 heartbeat IPC: 0.39412 cumulative IPC: 0.41181 (Simulation time: 0 hr 5 min 3 sec) 
Heartbeat CPU  0 instructions:  194000000 cycles:  334970242 heartbeat IPC: 0.48749 cumulative IPC: 0.41249 (Simulation time: 0 hr 5 min 5 sec) 
Heartbeat CPU  0 instructions:  195000000 cycles:  337603146 heartbeat IPC: 0.37981 cumulative IPC: 0.41211 (Simulation time: 0 hr 5 min 7 sec) 
Heartbeat CPU  0 instructions:  196000000 cycles:  340222420 heartbeat IPC: 0.38179 cumulative IPC: 0.41177 (Simulation time: 0 hr 5 min 8 sec) 
Heartbeat CPU  0 instructions:  197000002 cycles:  342780505 heartbeat IPC: 0.39092 cumulative IPC: 0.41155 (Simulation time: 0 hr 5 min 10 sec) 
Heartbeat CPU  0 instructions:  198000000 cycles:  345297504 heartbeat IPC: 0.39730 cumulative IPC: 0.41140 (Simulation time: 0 hr 5 min 12 sec) 
Heartbeat CPU  0 instructions:  199000000 cycles:  347809801 heartbeat IPC: 0.39804 cumulative IPC: 0.41126 (Simulation time: 0 hr 5 min 14 sec) 
Heartbeat CPU  0 instructions:  200000000 cycles:  350378698 heartbeat IPC: 0.38927 cumulative IPC: 0.41103 (Simulation time: 0 hr 5 min 16 sec) 
Heartbeat CPU  0 instructions:  201000002 cycles:  353051233 heartbeat IPC: 0.37418 cumulative IPC: 0.41062 (Simulation time: 0 hr 5 min 18 sec) 
Heartbeat CPU  0 instructions:  202000001 cycles:  355749402 heartbeat IPC: 0.37062 cumulative IPC: 0.41019 (Simulation time: 0 hr 5 min 20 sec) 
Heartbeat CPU  0 instructions:  203000000 cycles:  358330841 heartbeat IPC: 0.38738 cumulative IPC: 0.40996 (Simulation time: 0 hr 5 min 21 sec) 
Heartbeat CPU  0 instructions:  204000000 cycles:  360858591 heartbeat IPC: 0.39561 cumulative IPC: 0.40981 (Simulation time: 0 hr 5 min 23 sec) 
Heartbeat CPU  0 instructions:  205000002 cycles:  363479357 heartbeat IPC: 0.38157 cumulative IPC: 0.40952 (Simulation time: 0 hr 5 min 25 sec) 
Heartbeat CPU  0 instructions:  206000001 cycles:  366006963 heartbeat IPC: 0.39563 cumulative IPC: 0.40939 (Simulation time: 0 hr 5 min 27 sec) 
Heartbeat CPU  0 instructions:  207000000 cycles:  368590191 heartbeat IPC: 0.38711 cumulative IPC: 0.40917 (Simulation time: 0 hr 5 min 29 sec) 
Heartbeat CPU  0 instructions:  208000000 cycles:  371401155 heartbeat IPC: 0.35575 cumulative IPC: 0.40860 (Simulation time: 0 hr 5 min 31 sec) 
Heartbeat CPU  0 instructions:  209000003 cycles:  374222802 heartbeat IPC: 0.35440 cumulative IPC: 0.40803 (Simulation time: 0 hr 5 min 33 sec) 
Heartbeat CPU  0 instructions:  210000000 cycles:  376819723 heartbeat IPC: 0.38507 cumulative IPC: 0.40781 (Simulation time: 0 hr 5 min 35 sec) 
Heartbeat CPU  0 instructions:  211000000 cycles:  379684380 heartbeat IPC: 0.34908 cumulative IPC: 0.40719 (Simulation time: 0 hr 5 min 36 sec) 
Heartbeat CPU  0 instructions:  212000000 cycles:  382380366 heartbeat IPC: 0.37092 cumulative IPC: 0.40684 (Simulation time: 0 hr 5 min 38 sec) 
Heartbeat CPU  0 instructions:  213000002 cycles:  385121001 heartbeat IPC: 0.36488 cumulative IPC: 0.40642 (Simulation time: 0 hr 5 min 40 sec) 
Heartbeat CPU  0 instructions:  214000000 cycles:  387923350 heartbeat IPC: 0.35684 cumulative IPC: 0.40593 (Simulation time: 0 hr 5 min 42 sec) 
Heartbeat CPU  0 instructions:  215000001 cycles:  390709611 heartbeat IPC: 0.35890 cumulative IPC: 0.40546 (Simulation time: 0 hr 5 min 44 sec) 
Heartbeat CPU  0 instructions:  216000000 cycles:  393470393 heartbeat IPC: 0.36222 cumulative IPC: 0.40505 (Simulation time: 0 hr 5 min 46 sec) 
Heartbeat CPU  0 instructions:  217000000 cycles:  396245722 heartbeat IPC: 0.36032 cumulative IPC: 0.40462 (Simulation time: 0 hr 5 min 48 sec) 
Heartbeat CPU  0 instructions:  218000002 cycles:  399029304 heartbeat IPC: 0.35925 cumulative IPC: 0.40419 (Simulation time: 0 hr 5 min 50 sec) 
Heartbeat CPU  0 instructions:  219000000 cycles:  401782237 heartbeat IPC: 0.36325 cumulative IPC: 0.40380 (Simulation time: 0 hr 5 min 52 sec) 
Heartbeat CPU  0 instructions:  220000000 cycles:  404519753 heartbeat IPC: 0.36529 cumulative IPC: 0.40345 (Simulation time: 0 hr 5 min 54 sec) 
Heartbeat CPU  0 instructions:  221000003 cycles:  407320076 heartbeat IPC: 0.35710 cumulative IPC: 0.40302 (Simulation time: 0 hr 5 min 55 sec) 
Heartbeat CPU  0 instructions:  222000003 cycles:  410095366 heartbeat IPC: 0.36032 cumulative IPC: 0.40263 (Simulation time: 0 hr 5 min 57 sec) 
Heartbeat CPU  0 instructions:  223000000 cycles:  412811841 heartbeat IPC: 0.36812 cumulative IPC: 0.40232 (Simulation time: 0 hr 5 min 59 sec) 
Heartbeat CPU  0 instructions:  224000000 cycles:  415515331 heartbeat IPC: 0.36989 cumulative IPC: 0.40204 (Simulation time: 0 hr 6 min 1 sec) 
Heartbeat CPU  0 instructions:  225000000 cycles:  418144573 heartbeat IPC: 0.38034 cumulative IPC: 0.40185 (Simulation time: 0 hr 6 min 3 sec) 
Heartbeat CPU  0 instructions:  226000002 cycles:  420881463 heartbeat IPC: 0.36538 cumulative IPC: 0.40153 (Simulation time: 0 hr 6 min 5 sec) 
Heartbeat CPU  0 instructions:  227000000 cycles:  423622421 heartbeat IPC: 0.36484 cumulative IPC: 0.40122 (Simulation time: 0 hr 6 min 7 sec) 
Heartbeat CPU  0 instructions:  228000000 cycles:  426311657 heartbeat IPC: 0.37185 cumulative IPC: 0.40097 (Simulation time: 0 hr 6 min 9 sec) 
Heartbeat CPU  0 instructions:  229000003 cycles:  429108199 heartbeat IPC: 0.35759 cumulative IPC: 0.40059 (Simulation time: 0 hr 6 min 10 sec) 
Heartbeat CPU  0 instructions:  230000003 cycles:  431896386 heartbeat IPC: 0.35866 cumulative IPC: 0.40023 (Simulation time: 0 hr 6 min 12 sec) 
Heartbeat CPU  0 instructions:  231000000 cycles:  434674522 heartbeat IPC: 0.35995 cumulative IPC: 0.39989 (Simulation time: 0 hr 6 min 14 sec) 
Heartbeat CPU  0 instructions:  232000000 cycles:  437382356 heartbeat IPC: 0.36930 cumulative IPC: 0.39964 (Simulation time: 0 hr 6 min 16 sec) 
Heartbeat CPU  0 instructions:  233000001 cycles:  440111542 heartbeat IPC: 0.36641 cumulative IPC: 0.39937 (Simulation time: 0 hr 6 min 18 sec) 
Heartbeat CPU  0 instructions:  234000000 cycles:  442839484 heartbeat IPC: 0.36658 cumulative IPC: 0.39910 (Simulation time: 0 hr 6 min 20 sec) 
Heartbeat CPU  0 instructions:  235000000 cycles:  445544709 heartbeat IPC: 0.36966 cumulative IPC: 0.39887 (Simulation time: 0 hr 6 min 22 sec) 
Heartbeat CPU  0 instructions:  236000000 cycles:  448018507 heartbeat IPC: 0.40424 cumulative IPC: 0.39890 (Simulation time: 0 hr 6 min 24 sec) 
Heartbeat CPU  0 instructions:  237000001 cycles:  450356116 heartbeat IPC: 0.42779 cumulative IPC: 0.39910 (Simulation time: 0 hr 6 min 25 sec) 
Heartbeat CPU  0 instructions:  238000000 cycles:  452910442 heartbeat IPC: 0.39149 cumulative IPC: 0.39904 (Simulation time: 0 hr 6 min 27 sec) 
Heartbeat CPU  0 instructions:  239000000 cycles:  455666098 heartbeat IPC: 0.36289 cumulative IPC: 0.39876 (Simulation time: 0 hr 6 min 29 sec) 
Heartbeat CPU  0 instructions:  240000000 cycles:  458333702 heartbeat IPC: 0.37487 cumulative IPC: 0.39858 (Simulation time: 0 hr 6 min 31 sec) 
Heartbeat CPU  0 instructions:  241000000 cycles:  461027749 heartbeat IPC: 0.37119 cumulative IPC: 0.39837 (Simulation time: 0 hr 6 min 33 sec) 
Heartbeat CPU  0 instructions:  242000003 cycles:  463851204 heartbeat IPC: 0.35418 cumulative IPC: 0.39802 (Simulation time: 0 hr 6 min 35 sec) 
Heartbeat CPU  0 instructions:  243000001 cycles:  466619986 heartbeat IPC: 0.36117 cumulative IPC: 0.39774 (Simulation time: 0 hr 6 min 37 sec) 
Heartbeat CPU  0 instructions:  244000000 cycles:  469227041 heartbeat IPC: 0.38357 cumulative IPC: 0.39763 (Simulation time: 0 hr 6 min 39 sec) 
Heartbeat CPU  0 instructions:  245000000 cycles:  471771845 heartbeat IPC: 0.39296 cumulative IPC: 0.39760 (Simulation time: 0 hr 6 min 41 sec) 
Heartbeat CPU  0 instructions:  246000001 cycles:  474506112 heartbeat IPC: 0.36573 cumulative IPC: 0.39736 (Simulation time: 0 hr 6 min 42 sec) 
Heartbeat CPU  0 instructions:  247000002 cycles:  477149701 heartbeat IPC: 0.37827 cumulative IPC: 0.39723 (Simulation time: 0 hr 6 min 44 sec) 
Heartbeat CPU  0 instructions:  248000000 cycles:  479736657 heartbeat IPC: 0.38655 cumulative IPC: 0.39715 (Simulation time: 0 hr 6 min 46 sec) 
Heartbeat CPU  0 instructions:  249000003 cycles:  482286805 heartbeat IPC: 0.39214 cumulative IPC: 0.39712 (Simulation time: 0 hr 6 min 48 sec) 
Heartbeat CPU  0 instructions:  250000000 cycles:  484683704 heartbeat IPC: 0.41720 cumulative IPC: 0.39725 (Simulation time: 0 hr 6 min 50 sec) 
Heartbeat CPU  0 instructions:  251000002 cycles:  487397256 heartbeat IPC: 0.36852 cumulative IPC: 0.39704 (Simulation time: 0 hr 6 min 52 sec) 
Heartbeat CPU  0 instructions:  252000000 cycles:  490102383 heartbeat IPC: 0.36967 cumulative IPC: 0.39685 (Simulation time: 0 hr 6 min 54 sec) 
Heartbeat CPU  0 instructions:  253000000 cycles:  492919004 heartbeat IPC: 0.35504 cumulative IPC: 0.39654 (Simulation time: 0 hr 6 min 56 sec) 
Heartbeat CPU  0 instructions:  254000002 cycles:  495639409 heartbeat IPC: 0.36759 cumulative IPC: 0.39634 (Simulation time: 0 hr 6 min 57 sec) 
Heartbeat CPU  0 instructions:  255000001 cycles:  498369099 heartbeat IPC: 0.36634 cumulative IPC: 0.39613 (Simulation time: 0 hr 6 min 59 sec) 
Heartbeat CPU  0 instructions:  256000000 cycles:  501094868 heartbeat IPC: 0.36687 cumulative IPC: 0.39593 (Simulation time: 0 hr 7 min 1 sec) 
Heartbeat CPU  0 instructions:  257000000 cycles:  503811171 heartbeat IPC: 0.36815 cumulative IPC: 0.39574 (Simulation time: 0 hr 7 min 3 sec) 
Heartbeat CPU  0 instructions:  258000000 cycles:  506515061 heartbeat IPC: 0.36984 cumulative IPC: 0.39556 (Simulation time: 0 hr 7 min 5 sec) 
Heartbeat CPU  0 instructions:  259000000 cycles:  508999605 heartbeat IPC: 0.40249 cumulative IPC: 0.39561 (Simulation time: 0 hr 7 min 7 sec) 
Heartbeat CPU  0 instructions:  260000000 cycles:  511666332 heartbeat IPC: 0.37499 cumulative IPC: 0.39547 (Simulation time: 0 hr 7 min 9 sec) 
Heartbeat CPU  0 instructions:  261000000 cycles:  514370426 heartbeat IPC: 0.36981 cumulative IPC: 0.39530 (Simulation time: 0 hr 7 min 11 sec) 
Heartbeat CPU  0 instructions:  262000000 cycles:  517093363 heartbeat IPC: 0.36725 cumulative IPC: 0.39511 (Simulation time: 0 hr 7 min 13 sec) 
Heartbeat CPU  0 instructions:  263000001 cycles:  519783047 heartbeat IPC: 0.37179 cumulative IPC: 0.39496 (Simulation time: 0 hr 7 min 14 sec) 
Heartbeat CPU  0 instructions:  264000000 cycles:  522412264 heartbeat IPC: 0.38034 cumulative IPC: 0.39487 (Simulation time: 0 hr 7 min 16 sec) 
Heartbeat CPU  0 instructions:  265000002 cycles:  525045450 heartbeat IPC: 0.37977 cumulative IPC: 0.39477 (Simulation time: 0 hr 7 min 18 sec) 
Heartbeat CPU  0 instructions:  266000002 cycles:  527692525 heartbeat IPC: 0.37778 cumulative IPC: 0.39467 (Simulation time: 0 hr 7 min 20 sec) 
Heartbeat CPU  0 instructions:  267000003 cycles:  530413815 heartbeat IPC: 0.36747 cumulative IPC: 0.39449 (Simulation time: 0 hr 7 min 23 sec) 
Heartbeat CPU  0 instructions:  268000000 cycles:  533149690 heartbeat IPC: 0.36551 cumulative IPC: 0.39431 (Simulation time: 0 hr 7 min 24 sec) 
Heartbeat CPU  0 instructions:  269000001 cycles:  535877499 heartbeat IPC: 0.36659 cumulative IPC: 0.39413 (Simulation time: 0 hr 7 min 26 sec) 
Heartbeat CPU  0 instructions:  270000001 cycles:  538577468 heartbeat IPC: 0.37037 cumulative IPC: 0.39398 (Simulation time: 0 hr 7 min 28 sec) 
Heartbeat CPU  0 instructions:  271000003 cycles:  541266713 heartbeat IPC: 0.37185 cumulative IPC: 0.39384 (Simulation time: 0 hr 7 min 30 sec) 
Heartbeat CPU  0 instructions:  272000000 cycles:  543989242 heartbeat IPC: 0.36730 cumulative IPC: 0.39368 (Simulation time: 0 hr 7 min 32 sec) 
Heartbeat CPU  0 instructions:  273000001 cycles:  546673350 heartbeat IPC: 0.37256 cumulative IPC: 0.39355 (Simulation time: 0 hr 7 min 34 sec) 
Heartbeat CPU  0 instructions:  274000003 cycles:  549452174 heartbeat IPC: 0.35987 cumulative IPC: 0.39334 (Simulation time: 0 hr 7 min 36 sec) 
Heartbeat CPU  0 instructions:  275000002 cycles:  552173794 heartbeat IPC: 0.36743 cumulative IPC: 0.39318 (Simulation time: 0 hr 7 min 38 sec) 
Heartbeat CPU  0 instructions:  276000000 cycles:  554832861 heartbeat IPC: 0.37607 cumulative IPC: 0.39308 (Simulation time: 0 hr 7 min 40 sec) 
Heartbeat CPU  0 instructions:  277000000 cycles:  557397210 heartbeat IPC: 0.38996 cumulative IPC: 0.39306 (Simulation time: 0 hr 7 min 41 sec) 
Heartbeat CPU  0 instructions:  278000001 cycles:  559887215 heartbeat IPC: 0.40161 cumulative IPC: 0.39311 (Simulation time: 0 hr 7 min 43 sec) 
Heartbeat CPU  0 instructions:  279000002 cycles:  562456860 heartbeat IPC: 0.38916 cumulative IPC: 0.39308 (Simulation time: 0 hr 7 min 45 sec) 
Heartbeat CPU  0 instructions:  280000000 cycles:  565157544 heartbeat IPC: 0.37028 cumulative IPC: 0.39295 (Simulation time: 0 hr 7 min 47 sec) 
Heartbeat CPU  0 instructions:  281000002 cycles:  567877695 heartbeat IPC: 0.36763 cumulative IPC: 0.39280 (Simulation time: 0 hr 7 min 49 sec) 
Heartbeat CPU  0 instructions:  282000003 cycles:  570513814 heartbeat IPC: 0.37935 cumulative IPC: 0.39272 (Simulation time: 0 hr 7 min 51 sec) 
Heartbeat CPU  0 instructions:  283000001 cycles:  572974071 heartbeat IPC: 0.40646 cumulative IPC: 0.39280 (Simulation time: 0 hr 7 min 53 sec) 
Heartbeat CPU  0 instructions:  284000000 cycles:  575581050 heartbeat IPC: 0.38359 cumulative IPC: 0.39275 (Simulation time: 0 hr 7 min 55 sec) 
Heartbeat CPU  0 instructions:  285000001 cycles:  578250545 heartbeat IPC: 0.37460 cumulative IPC: 0.39264 (Simulation time: 0 hr 7 min 56 sec) 
Heartbeat CPU  0 instructions:  286000000 cycles:  580733645 heartbeat IPC: 0.40272 cumulative IPC: 0.39270 (Simulation time: 0 hr 7 min 58 sec) 
Heartbeat CPU  0 instructions:  287000002 cycles:  583296467 heartbeat IPC: 0.39020 cumulative IPC: 0.39268 (Simulation time: 0 hr 8 min 0 sec) 
Heartbeat CPU  0 instructions:  288000000 cycles:  586005426 heartbeat IPC: 0.36914 cumulative IPC: 0.39255 (Simulation time: 0 hr 8 min 2 sec) 
Heartbeat CPU  0 instructions:  289000000 cycles:  588755272 heartbeat IPC: 0.36366 cumulative IPC: 0.39238 (Simulation time: 0 hr 8 min 4 sec) 
Heartbeat CPU  0 instructions:  290000002 cycles:  591342809 heartbeat IPC: 0.38647 cumulative IPC: 0.39235 (Simulation time: 0 hr 8 min 6 sec) 
Heartbeat CPU  0 instructions:  291000000 cycles:  594224022 heartbeat IPC: 0.34708 cumulative IPC: 0.39208 (Simulation time: 0 hr 8 min 8 sec) 
Heartbeat CPU  0 instructions:  292000000 cycles:  597032547 heartbeat IPC: 0.35606 cumulative IPC: 0.39188 (Simulation time: 0 hr 8 min 10 sec) 
Heartbeat CPU  0 instructions:  293000000 cycles:  599810973 heartbeat IPC: 0.35992 cumulative IPC: 0.39170 (Simulation time: 0 hr 8 min 11 sec) 
Heartbeat CPU  0 instructions:  294000002 cycles:  602555518 heartbeat IPC: 0.36436 cumulative IPC: 0.39155 (Simulation time: 0 hr 8 min 13 sec) 
Heartbeat CPU  0 instructions:  295000001 cycles:  605249699 heartbeat IPC: 0.37117 cumulative IPC: 0.39144 (Simulation time: 0 hr 8 min 15 sec) 
Heartbeat CPU  0 instructions:  296000000 cycles:  608005992 heartbeat IPC: 0.36281 cumulative IPC: 0.39128 (Simulation time: 0 hr 8 min 17 sec) 
Heartbeat CPU  0 instructions:  297000000 cycles:  610729982 heartbeat IPC: 0.36711 cumulative IPC: 0.39115 (Simulation time: 0 hr 8 min 19 sec) 
Heartbeat CPU  0 instructions:  298000000 cycles:  613411428 heartbeat IPC: 0.37293 cumulative IPC: 0.39105 (Simulation time: 0 hr 8 min 21 sec) 
Heartbeat CPU  0 instructions:  299000000 cycles:  616201914 heartbeat IPC: 0.35836 cumulative IPC: 0.39087 (Simulation time: 0 hr 8 min 23 sec) 
Heartbeat CPU  0 instructions:  300000000 cycles:  618893191 heartbeat IPC: 0.37157 cumulative IPC: 0.39077 (Simulation time: 0 hr 8 min 25 sec) 
Heartbeat CPU  0 instructions:  301000000 cycles:  621660769 heartbeat IPC: 0.36133 cumulative IPC: 0.39061 (Simulation time: 0 hr 8 min 26 sec) 
Heartbeat CPU  0 instructions:  302000000 cycles:  624400294 heartbeat IPC: 0.36503 cumulative IPC: 0.39048 (Simulation time: 0 hr 8 min 28 sec) 
Heartbeat CPU  0 instructions:  303000000 cycles:  627269674 heartbeat IPC: 0.34851 cumulative IPC: 0.39025 (Simulation time: 0 hr 8 min 30 sec) 
Heartbeat CPU  0 instructions:  304000000 cycles:  629983530 heartbeat IPC: 0.36848 cumulative IPC: 0.39013 (Simulation time: 0 hr 8 min 32 sec) 
Heartbeat CPU  0 instructions:  305000002 cycles:  632604028 heartbeat IPC: 0.38161 cumulative IPC: 0.39009 (Simulation time: 0 hr 8 min 34 sec) 
Heartbeat CPU  0 instructions:  306000000 cycles:  635490301 heartbeat IPC: 0.34647 cumulative IPC: 0.38985 (Simulation time: 0 hr 8 min 36 sec) 
Heartbeat CPU  0 instructions:  307000000 cycles:  638209946 heartbeat IPC: 0.36770 cumulative IPC: 0.38974 (Simulation time: 0 hr 8 min 38 sec) 
Heartbeat CPU  0 instructions:  308000000 cycles:  640923784 heartbeat IPC: 0.36848 cumulative IPC: 0.38963 (Simulation time: 0 hr 8 min 40 sec) 
Heartbeat CPU  0 instructions:  309000000 cycles:  643602611 heartbeat IPC: 0.37330 cumulative IPC: 0.38955 (Simulation time: 0 hr 8 min 42 sec) 
Heartbeat CPU  0 instructions:  310000000 cycles:  646026874 heartbeat IPC: 0.41250 cumulative IPC: 0.38965 (Simulation time: 0 hr 8 min 43 sec) 
Heartbeat CPU  0 instructions:  311000000 cycles:  647913086 heartbeat IPC: 0.53016 cumulative IPC: 0.39014 (Simulation time: 0 hr 8 min 45 sec) 
Heartbeat CPU  0 instructions:  312000000 cycles:  650543168 heartbeat IPC: 0.38022 cumulative IPC: 0.39009 (Simulation time: 0 hr 8 min 47 sec) 
Heartbeat CPU  0 instructions:  313000002 cycles:  653284434 heartbeat IPC: 0.36480 cumulative IPC: 0.38997 (Simulation time: 0 hr 8 min 49 sec) 
Heartbeat CPU  0 instructions:  314000002 cycles:  656010785 heartbeat IPC: 0.36679 cumulative IPC: 0.38985 (Simulation time: 0 hr 8 min 51 sec) 
Heartbeat CPU  0 instructions:  315000001 cycles:  658768686 heartbeat IPC: 0.36259 cumulative IPC: 0.38972 (Simulation time: 0 hr 8 min 52 sec) 
Heartbeat CPU  0 instructions:  316000000 cycles:  661570258 heartbeat IPC: 0.35694 cumulative IPC: 0.38955 (Simulation time: 0 hr 8 min 54 sec) 
Heartbeat CPU  0 instructions:  317000003 cycles:  664317816 heartbeat IPC: 0.36396 cumulative IPC: 0.38942 (Simulation time: 0 hr 8 min 56 sec) 
Heartbeat CPU  0 instructions:  318000000 cycles:  667045323 heartbeat IPC: 0.36663 cumulative IPC: 0.38931 (Simulation time: 0 hr 8 min 58 sec) 
Heartbeat CPU  0 instructions:  319000000 cycles:  669709903 heartbeat IPC: 0.37529 cumulative IPC: 0.38925 (Simulation time: 0 hr 9 min 0 sec) 
Heartbeat CPU  0 instructions:  320000000 cycles:  672382885 heartbeat IPC: 0.37411 cumulative IPC: 0.38918 (Simulation time: 0 hr 9 min 2 sec) 
Heartbeat CPU  0 instructions:  321000003 cycles:  675104899 heartbeat IPC: 0.36738 cumulative IPC: 0.38907 (Simulation time: 0 hr 9 min 4 sec) 
Heartbeat CPU  0 instructions:  322000002 cycles:  677723690 heartbeat IPC: 0.38186 cumulative IPC: 0.38904 (Simulation time: 0 hr 9 min 6 sec) 
Heartbeat CPU  0 instructions:  323000000 cycles:  680347416 heartbeat IPC: 0.38114 cumulative IPC: 0.38900 (Simulation time: 0 hr 9 min 7 sec) 
Heartbeat CPU  0 instructions:  324000000 cycles:  682414978 heartbeat IPC: 0.48366 cumulative IPC: 0.38934 (Simulation time: 0 hr 9 min 9 sec) 
Heartbeat CPU  0 instructions:  325000001 cycles:  684813705 heartbeat IPC: 0.41689 cumulative IPC: 0.38946 (Simulation time: 0 hr 9 min 11 sec) 
Heartbeat CPU  0 instructions:  326000000 cycles:  687278609 heartbeat IPC: 0.40569 cumulative IPC: 0.38952 (Simulation time: 0 hr 9 min 13 sec) 
Heartbeat CPU  0 instructions:  327000000 cycles:  689703799 heartbeat IPC: 0.41234 cumulative IPC: 0.38962 (Simulation time: 0 hr 9 min 15 sec) 
Heartbeat CPU  0 instructions:  328000000 cycles:  692382842 heartbeat IPC: 0.37327 cumulative IPC: 0.38954 (Simulation time: 0 hr 9 min 16 sec) 
Heartbeat CPU  0 instructions:  329000003 cycles:  694881503 heartbeat IPC: 0.40022 cumulative IPC: 0.38959 (Simulation time: 0 hr 9 min 18 sec) 
Heartbeat CPU  0 instructions:  330000001 cycles:  697227706 heartbeat IPC: 0.42622 cumulative IPC: 0.38974 (Simulation time: 0 hr 9 min 20 sec) 
Heartbeat CPU  0 instructions:  331000001 cycles:  699597164 heartbeat IPC: 0.42204 cumulative IPC: 0.38987 (Simulation time: 0 hr 9 min 22 sec) 
Heartbeat CPU  0 instructions:  332000000 cycles:  702188739 heartbeat IPC: 0.38587 cumulative IPC: 0.38985 (Simulation time: 0 hr 9 min 24 sec) 
Heartbeat CPU  0 instructions:  333000000 cycles:  704766090 heartbeat IPC: 0.38800 cumulative IPC: 0.38984 (Simulation time: 0 hr 9 min 26 sec) 
Heartbeat CPU  0 instructions:  334000001 cycles:  707308923 heartbeat IPC: 0.39326 cumulative IPC: 0.38985 (Simulation time: 0 hr 9 min 27 sec) 
Heartbeat CPU  0 instructions:  335000000 cycles:  709909834 heartbeat IPC: 0.38448 cumulative IPC: 0.38983 (Simulation time: 0 hr 9 min 29 sec) 
Heartbeat CPU  0 instructions:  336000000 cycles:  712309733 heartbeat IPC: 0.41668 cumulative IPC: 0.38994 (Simulation time: 0 hr 9 min 31 sec) 
Heartbeat CPU  0 instructions:  337000000 cycles:  714698727 heartbeat IPC: 0.41859 cumulative IPC: 0.39005 (Simulation time: 0 hr 9 min 33 sec) 
Heartbeat CPU  0 instructions:  338000001 cycles:  717176242 heartbeat IPC: 0.40363 cumulative IPC: 0.39011 (Simulation time: 0 hr 9 min 35 sec) 
Heartbeat CPU  0 instructions:  339000000 cycles:  719643244 heartbeat IPC: 0.40535 cumulative IPC: 0.39017 (Simulation time: 0 hr 9 min 37 sec) 
Heartbeat CPU  0 instructions:  340000000 cycles:  722270115 heartbeat IPC: 0.38068 cumulative IPC: 0.39013 (Simulation time: 0 hr 9 min 39 sec) 
Heartbeat CPU  0 instructions:  341000002 cycles:  724876644 heartbeat IPC: 0.38365 cumulative IPC: 0.39010 (Simulation time: 0 hr 9 min 40 sec) 
Heartbeat CPU  0 instructions:  342000001 cycles:  727633316 heartbeat IPC: 0.36276 cumulative IPC: 0.38998 (Simulation time: 0 hr 9 min 42 sec) 
Heartbeat CPU  0 instructions:  343000003 cycles:  730224470 heartbeat IPC: 0.38593 cumulative IPC: 0.38996 (Simulation time: 0 hr 9 min 44 sec) 
Heartbeat CPU  0 instructions:  344000000 cycles:  732752464 heartbeat IPC: 0.39557 cumulative IPC: 0.38998 (Simulation time: 0 hr 9 min 46 sec) 
Heartbeat CPU  0 instructions:  345000003 cycles:  735543120 heartbeat IPC: 0.35834 cumulative IPC: 0.38984 (Simulation time: 0 hr 9 min 48 sec) 
Heartbeat CPU  0 instructions:  346000001 cycles:  738261979 heartbeat IPC: 0.36780 cumulative IPC: 0.38975 (Simulation time: 0 hr 9 min 50 sec) 
Heartbeat CPU  0 instructions:  347000002 cycles:  740754003 heartbeat IPC: 0.40128 cumulative IPC: 0.38979 (Simulation time: 0 hr 9 min 52 sec) 
Heartbeat CPU  0 instructions:  348000000 cycles:  743122258 heartbeat IPC: 0.42225 cumulative IPC: 0.38991 (Simulation time: 0 hr 9 min 53 sec) 
Heartbeat CPU  0 instructions:  349000000 cycles:  745753284 heartbeat IPC: 0.38008 cumulative IPC: 0.38987 (Simulation time: 0 hr 9 min 55 sec) 
Heartbeat CPU  0 instructions:  350000001 cycles:  748264809 heartbeat IPC: 0.39816 cumulative IPC: 0.38991 (Simulation time: 0 hr 9 min 57 sec) 
Heartbeat CPU  0 instructions:  351000000 cycles:  751059497 heartbeat IPC: 0.35782 cumulative IPC: 0.38977 (Simulation time: 0 hr 9 min 59 sec) 
Heartbeat CPU  0 instructions:  352000000 cycles:  753728982 heartbeat IPC: 0.37460 cumulative IPC: 0.38970 (Simulation time: 0 hr 10 min 1 sec) 
Heartbeat CPU  0 instructions:  353000002 cycles:  756292679 heartbeat IPC: 0.39006 cumulative IPC: 0.38971 (Simulation time: 0 hr 10 min 3 sec) 
Heartbeat CPU  0 instructions:  354000000 cycles:  758941471 heartbeat IPC: 0.37753 cumulative IPC: 0.38966 (Simulation time: 0 hr 10 min 5 sec) 
Heartbeat CPU  0 instructions:  355000003 cycles:  761677712 heartbeat IPC: 0.36547 cumulative IPC: 0.38955 (Simulation time: 0 hr 10 min 7 sec) 
Heartbeat CPU  0 instructions:  356000000 cycles:  764407825 heartbeat IPC: 0.36628 cumulative IPC: 0.38946 (Simulation time: 0 hr 10 min 8 sec) 
Heartbeat CPU  0 instructions:  357000000 cycles:  767079106 heartbeat IPC: 0.37435 cumulative IPC: 0.38940 (Simulation time: 0 hr 10 min 10 sec) 
Heartbeat CPU  0 instructions:  358000000 cycles:  769777876 heartbeat IPC: 0.37054 cumulative IPC: 0.38932 (Simulation time: 0 hr 10 min 12 sec) 
Heartbeat CPU  0 instructions:  359000000 cycles:  772461025 heartbeat IPC: 0.37270 cumulative IPC: 0.38925 (Simulation time: 0 hr 10 min 14 sec) 
Heartbeat CPU  0 instructions:  360000000 cycles:  775132378 heartbeat IPC: 0.37434 cumulative IPC: 0.38919 (Simulation time: 0 hr 10 min 16 sec) 
Heartbeat CPU  0 instructions:  361000000 cycles:  777659310 heartbeat IPC: 0.39574 cumulative IPC: 0.38922 (Simulation time: 0 hr 10 min 18 sec) 
Heartbeat CPU  0 instructions:  362000000 cycles:  780552715 heartbeat IPC: 0.34561 cumulative IPC: 0.38903 (Simulation time: 0 hr 10 min 20 sec) 
Heartbeat CPU  0 instructions:  363000000 cycles:  783332283 heartbeat IPC: 0.35977 cumulative IPC: 0.38891 (Simulation time: 0 hr 10 min 22 sec) 
Heartbeat CPU  0 instructions:  364000000 cycles:  785730599 heartbeat IPC: 0.41696 cumulative IPC: 0.38901 (Simulation time: 0 hr 10 min 23 sec) 
Heartbeat CPU  0 instructions:  365000000 cycles:  788140001 heartbeat IPC: 0.41504 cumulative IPC: 0.38910 (Simulation time: 0 hr 10 min 25 sec) 
Heartbeat CPU  0 instructions:  366000002 cycles:  789992696 heartbeat IPC: 0.53976 cumulative IPC: 0.38951 (Simulation time: 0 hr 10 min 27 sec) 
Heartbeat CPU  0 instructions:  367000000 cycles:  791744536 heartbeat IPC: 0.57083 cumulative IPC: 0.38997 (Simulation time: 0 hr 10 min 28 sec) 
Heartbeat CPU  0 instructions:  368000000 cycles:  794417151 heartbeat IPC: 0.37417 cumulative IPC: 0.38991 (Simulation time: 0 hr 10 min 30 sec) 
Heartbeat CPU  0 instructions:  369000000 cycles:  797199773 heartbeat IPC: 0.35937 cumulative IPC: 0.38979 (Simulation time: 0 hr 10 min 32 sec) 
Heartbeat CPU  0 instructions:  370000000 cycles:  800048290 heartbeat IPC: 0.35106 cumulative IPC: 0.38963 (Simulation time: 0 hr 10 min 34 sec) 
Heartbeat CPU  0 instructions:  371000003 cycles:  802707258 heartbeat IPC: 0.37609 cumulative IPC: 0.38958 (Simulation time: 0 hr 10 min 36 sec) 
Heartbeat CPU  0 instructions:  372000000 cycles:  805363933 heartbeat IPC: 0.37641 cumulative IPC: 0.38953 (Simulation time: 0 hr 10 min 38 sec) 
Heartbeat CPU  0 instructions:  373000002 cycles:  808024961 heartbeat IPC: 0.37580 cumulative IPC: 0.38948 (Simulation time: 0 hr 10 min 40 sec) 
Heartbeat CPU  0 instructions:  374000001 cycles:  810813875 heartbeat IPC: 0.35856 cumulative IPC: 0.38935 (Simulation time: 0 hr 10 min 41 sec) 
Heartbeat CPU  0 instructions:  375000000 cycles:  813579381 heartbeat IPC: 0.36160 cumulative IPC: 0.38925 (Simulation time: 0 hr 10 min 43 sec) 
Heartbeat CPU  0 instructions:  376000000 cycles:  816348697 heartbeat IPC: 0.36110 cumulative IPC: 0.38914 (Simulation time: 0 hr 10 min 45 sec) 
Heartbeat CPU  0 instructions:  377000002 cycles:  819111717 heartbeat IPC: 0.36192 cumulative IPC: 0.38903 (Simulation time: 0 hr 10 min 47 sec) 
Heartbeat CPU  0 instructions:  378000001 cycles:  821871669 heartbeat IPC: 0.36232 cumulative IPC: 0.38893 (Simulation time: 0 hr 10 min 49 sec) 
Heartbeat CPU  0 instructions:  379000000 cycles:  824720023 heartbeat IPC: 0.35108 cumulative IPC: 0.38878 (Simulation time: 0 hr 10 min 51 sec) 
Heartbeat CPU  0 instructions:  380000000 cycles:  827533333 heartbeat IPC: 0.35545 cumulative IPC: 0.38865 (Simulation time: 0 hr 10 min 53 sec) 
Heartbeat CPU  0 instructions:  381000002 cycles:  830352803 heartbeat IPC: 0.35468 cumulative IPC: 0.38851 (Simulation time: 0 hr 10 min 55 sec) 
Heartbeat CPU  0 instructions:  382000000 cycles:  833058743 heartbeat IPC: 0.36956 cumulative IPC: 0.38844 (Simulation time: 0 hr 10 min 56 sec) 
Heartbeat CPU  0 instructions:  383000001 cycles:  835769044 heartbeat IPC: 0.36896 cumulative IPC: 0.38837 (Simulation time: 0 hr 10 min 58 sec) 
Heartbeat CPU  0 instructions:  384000000 cycles:  838563011 heartbeat IPC: 0.35791 cumulative IPC: 0.38825 (Simulation time: 0 hr 11 min 0 sec) 
Heartbeat CPU  0 instructions:  385000002 cycles:  841277462 heartbeat IPC: 0.36840 cumulative IPC: 0.38818 (Simulation time: 0 hr 11 min 2 sec) 
Heartbeat CPU  0 instructions:  386000000 cycles:  843848877 heartbeat IPC: 0.38889 cumulative IPC: 0.38818 (Simulation time: 0 hr 11 min 4 sec) 
Heartbeat CPU  0 instructions:  387000000 cycles:  846456939 heartbeat IPC: 0.38343 cumulative IPC: 0.38817 (Simulation time: 0 hr 11 min 6 sec) 
Heartbeat CPU  0 instructions:  388000000 cycles:  849251846 heartbeat IPC: 0.35779 cumulative IPC: 0.38805 (Simulation time: 0 hr 11 min 8 sec) 
Heartbeat CPU  0 instructions:  389000000 cycles:  851909882 heartbeat IPC: 0.37622 cumulative IPC: 0.38801 (Simulation time: 0 hr 11 min 9 sec) 
Heartbeat CPU  0 instructions:  390000001 cycles:  854690625 heartbeat IPC: 0.35962 cumulative IPC: 0.38790 (Simulation time: 0 hr 11 min 11 sec) 
Heartbeat CPU  0 instructions:  391000001 cycles:  857428603 heartbeat IPC: 0.36523 cumulative IPC: 0.38782 (Simulation time: 0 hr 11 min 13 sec) 
Heartbeat CPU  0 instructions:  392000000 cycles:  860025226 heartbeat IPC: 0.38512 cumulative IPC: 0.38781 (Simulation time: 0 hr 11 min 15 sec) 
Heartbeat CPU  0 instructions:  393000001 cycles:  862809799 heartbeat IPC: 0.35912 cumulative IPC: 0.38771 (Simulation time: 0 hr 11 min 17 sec) 
Heartbeat CPU  0 instructions:  394000002 cycles:  865507200 heartbeat IPC: 0.37073 cumulative IPC: 0.38765 (Simulation time: 0 hr 11 min 19 sec) 
Heartbeat CPU  0 instructions:  395000000 cycles:  868056192 heartbeat IPC: 0.39231 cumulative IPC: 0.38766 (Simulation time: 0 hr 11 min 21 sec) 
Heartbeat CPU  0 instructions:  396000000 cycles:  870871672 heartbeat IPC: 0.35518 cumulative IPC: 0.38754 (Simulation time: 0 hr 11 min 22 sec) 
Heartbeat CPU  0 instructions:  397000000 cycles:  873624347 heartbeat IPC: 0.36328 cumulative IPC: 0.38746 (Simulation time: 0 hr 11 min 24 sec) 
Heartbeat CPU  0 instructions:  398000000 cycles:  876135023 heartbeat IPC: 0.39830 cumulative IPC: 0.38749 (Simulation time: 0 hr 11 min 26 sec) 
Heartbeat CPU  0 instructions:  399000000 cycles:  878921471 heartbeat IPC: 0.35888 cumulative IPC: 0.38739 (Simulation time: 0 hr 11 min 28 sec) 
Heartbeat CPU  0 instructions:  400000000 cycles:  881462524 heartbeat IPC: 0.39354 cumulative IPC: 0.38741 (Simulation time: 0 hr 11 min 30 sec) 
Heartbeat CPU  0 instructions:  401000003 cycles:  884145190 heartbeat IPC: 0.37276 cumulative IPC: 0.38736 (Simulation time: 0 hr 11 min 32 sec) 
Heartbeat CPU  0 instructions:  402000001 cycles:  886687320 heartbeat IPC: 0.39337 cumulative IPC: 0.38738 (Simulation time: 0 hr 11 min 33 sec) 
Heartbeat CPU  0 instructions:  403000001 cycles:  889149604 heartbeat IPC: 0.40613 cumulative IPC: 0.38744 (Simulation time: 0 hr 11 min 35 sec) 
Heartbeat CPU  0 instructions:  404000000 cycles:  892006824 heartbeat IPC: 0.34999 cumulative IPC: 0.38730 (Simulation time: 0 hr 11 min 37 sec) 
Heartbeat CPU  0 instructions:  405000001 cycles:  894842590 heartbeat IPC: 0.35264 cumulative IPC: 0.38717 (Simulation time: 0 hr 11 min 39 sec) 
Heartbeat CPU  0 instructions:  406000002 cycles:  897657659 heartbeat IPC: 0.35523 cumulative IPC: 0.38706 (Simulation time: 0 hr 11 min 41 sec) 
Heartbeat CPU  0 instructions:  407000000 cycles:  900294362 heartbeat IPC: 0.37926 cumulative IPC: 0.38704 (Simulation time: 0 hr 11 min 43 sec) 
Heartbeat CPU  0 instructions:  408000000 cycles:  903028226 heartbeat IPC: 0.36578 cumulative IPC: 0.38696 (Simulation time: 0 hr 11 min 44 sec) 
Heartbeat CPU  0 instructions:  409000003 cycles:  905750300 heartbeat IPC: 0.36737 cumulative IPC: 0.38690 (Simulation time: 0 hr 11 min 46 sec) 
Heartbeat CPU  0 instructions:  410000002 cycles:  908378466 heartbeat IPC: 0.38049 cumulative IPC: 0.38687 (Simulation time: 0 hr 11 min 48 sec) 
Heartbeat CPU  0 instructions:  411000000 cycles:  911116048 heartbeat IPC: 0.36529 cumulative IPC: 0.38680 (Simulation time: 0 hr 11 min 50 sec) 
Heartbeat CPU  0 instructions:  412000000 cycles:  913777800 heartbeat IPC: 0.37569 cumulative IPC: 0.38676 (Simulation time: 0 hr 11 min 52 sec) 
Heartbeat CPU  0 instructions:  413000001 cycles:  916582017 heartbeat IPC: 0.35661 cumulative IPC: 0.38666 (Simulation time: 0 hr 11 min 54 sec) 
Heartbeat CPU  0 instructions:  414000003 cycles:  919183862 heartbeat IPC: 0.38434 cumulative IPC: 0.38665 (Simulation time: 0 hr 11 min 56 sec) 
Heartbeat CPU  0 instructions:  415000002 cycles:  921839384 heartbeat IPC: 0.37657 cumulative IPC: 0.38662 (Simulation time: 0 hr 11 min 57 sec) 
Heartbeat CPU  0 instructions:  416000000 cycles:  924514719 heartbeat IPC: 0.37378 cumulative IPC: 0.38658 (Simulation time: 0 hr 11 min 59 sec) 
Heartbeat CPU  0 instructions:  417000003 cycles:  927240417 heartbeat IPC: 0.36688 cumulative IPC: 0.38651 (Simulation time: 0 hr 12 min 1 sec) 
Heartbeat CPU  0 instructions:  418000001 cycles:  930003290 heartbeat IPC: 0.36194 cumulative IPC: 0.38643 (Simulation time: 0 hr 12 min 3 sec) 
Heartbeat CPU  0 instructions:  419000000 cycles:  932815208 heartbeat IPC: 0.35563 cumulative IPC: 0.38632 (Simulation time: 0 hr 12 min 5 sec) 
Heartbeat CPU  0 instructions:  420000000 cycles:  935548843 heartbeat IPC: 0.36581 cumulative IPC: 0.38626 (Simulation time: 0 hr 12 min 7 sec) 
Heartbeat CPU  0 instructions:  421000000 cycles:  938049567 heartbeat IPC: 0.39988 cumulative IPC: 0.38630 (Simulation time: 0 hr 12 min 8 sec) 
Heartbeat CPU  0 instructions:  422000001 cycles:  940867005 heartbeat IPC: 0.35493 cumulative IPC: 0.38619 (Simulation time: 0 hr 12 min 10 sec) 
Heartbeat CPU  0 instructions:  423000003 cycles:  943552053 heartbeat IPC: 0.37243 cumulative IPC: 0.38615 (Simulation time: 0 hr 12 min 12 sec) 
Heartbeat CPU  0 instructions:  424000000 cycles:  946108808 heartbeat IPC: 0.39112 cumulative IPC: 0.38616 (Simulation time: 0 hr 12 min 14 sec) 
Heartbeat CPU  0 instructions:  425000001 cycles:  948826093 heartbeat IPC: 0.36801 cumulative IPC: 0.38610 (Simulation time: 0 hr 12 min 16 sec) 
Heartbeat CPU  0 instructions:  426000003 cycles:  951308526 heartbeat IPC: 0.40283 cumulative IPC: 0.38615 (Simulation time: 0 hr 12 min 17 sec) 
Heartbeat CPU  0 instructions:  427000002 cycles:  953879354 heartbeat IPC: 0.38898 cumulative IPC: 0.38616 (Simulation time: 0 hr 12 min 19 sec) 
Heartbeat CPU  0 instructions:  428000000 cycles:  956463177 heartbeat IPC: 0.38702 cumulative IPC: 0.38616 (Simulation time: 0 hr 12 min 21 sec) 
Heartbeat CPU  0 instructions:  429000003 cycles:  959006284 heartbeat IPC: 0.39322 cumulative IPC: 0.38619 (Simulation time: 0 hr 12 min 23 sec) 
Heartbeat CPU  0 instructions:  430000002 cycles:  961755197 heartbeat IPC: 0.36378 cumulative IPC: 0.38611 (Simulation time: 0 hr 12 min 25 sec) 
Heartbeat CPU  0 instructions:  431000001 cycles:  964247550 heartbeat IPC: 0.40123 cumulative IPC: 0.38616 (Simulation time: 0 hr 12 min 26 sec) 
Heartbeat CPU  0 instructions:  432000000 cycles:  966942729 heartbeat IPC: 0.37103 cumulative IPC: 0.38611 (Simulation time: 0 hr 12 min 28 sec) 
Heartbeat CPU  0 instructions:  433000003 cycles:  969601748 heartbeat IPC: 0.37608 cumulative IPC: 0.38608 (Simulation time: 0 hr 12 min 30 sec) 
Heartbeat CPU  0 instructions:  434000000 cycles:  972138016 heartbeat IPC: 0.39428 cumulative IPC: 0.38610 (Simulation time: 0 hr 12 min 32 sec) 
Heartbeat CPU  0 instructions:  435000000 cycles:  974926851 heartbeat IPC: 0.35857 cumulative IPC: 0.38601 (Simulation time: 0 hr 12 min 34 sec) 
Heartbeat CPU  0 instructions:  436000000 cycles:  977199516 heartbeat IPC: 0.44001 cumulative IPC: 0.38616 (Simulation time: 0 hr 12 min 36 sec) 
Heartbeat CPU  0 instructions:  437000003 cycles:  979760170 heartbeat IPC: 0.39053 cumulative IPC: 0.38617 (Simulation time: 0 hr 12 min 37 sec) 
Heartbeat CPU  0 instructions:  438000001 cycles:  982626533 heartbeat IPC: 0.34887 cumulative IPC: 0.38605 (Simulation time: 0 hr 12 min 39 sec) 
Heartbeat CPU  0 instructions:  439000000 cycles:  985504121 heartbeat IPC: 0.34751 cumulative IPC: 0.38592 (Simulation time: 0 hr 12 min 41 sec) 
Heartbeat CPU  0 instructions:  440000000 cycles:  988266151 heartbeat IPC: 0.36205 cumulative IPC: 0.38585 (Simulation time: 0 hr 12 min 43 sec) 
Heartbeat CPU  0 instructions:  441000003 cycles:  991047795 heartbeat IPC: 0.35950 cumulative IPC: 0.38576 (Simulation time: 0 hr 12 min 45 sec) 
Heartbeat CPU  0 instructions:  442000002 cycles:  993808015 heartbeat IPC: 0.36229 cumulative IPC: 0.38569 (Simulation time: 0 hr 12 min 47 sec) 
Heartbeat CPU  0 instructions:  443000001 cycles:  996638963 heartbeat IPC: 0.35324 cumulative IPC: 0.38559 (Simulation time: 0 hr 12 min 49 sec) 
Heartbeat CPU  0 instructions:  444000000 cycles:  999411059 heartbeat IPC: 0.36074 cumulative IPC: 0.38551 (Simulation time: 0 hr 12 min 51 sec) 
Heartbeat CPU  0 instructions:  445000000 cycles: 1002271628 heartbeat IPC: 0.34958 cumulative IPC: 0.38539 (Simulation time: 0 hr 12 min 52 sec) 
Heartbeat CPU  0 instructions:  446000002 cycles: 1005111444 heartbeat IPC: 0.35214 cumulative IPC: 0.38529 (Simulation time: 0 hr 12 min 54 sec) 
Heartbeat CPU  0 instructions:  447000000 cycles: 1007878080 heartbeat IPC: 0.36145 cumulative IPC: 0.38522 (Simulation time: 0 hr 12 min 56 sec) 
Heartbeat CPU  0 instructions:  448000000 cycles: 1010401114 heartbeat IPC: 0.39635 cumulative IPC: 0.38525 (Simulation time: 0 hr 12 min 58 sec) 
Heartbeat CPU  0 instructions:  449000001 cycles: 1013260132 heartbeat IPC: 0.34977 cumulative IPC: 0.38514 (Simulation time: 0 hr 13 min 0 sec) 
Heartbeat CPU  0 instructions:  450000002 cycles: 1016015138 heartbeat IPC: 0.36298 cumulative IPC: 0.38507 (Simulation time: 0 hr 13 min 2 sec) 
Heartbeat CPU  0 instructions:  451000001 cycles: 1018698821 heartbeat IPC: 0.37262 cumulative IPC: 0.38503 (Simulation time: 0 hr 13 min 4 sec) 
Heartbeat CPU  0 instructions:  452000000 cycles: 1021515211 heartbeat IPC: 0.35506 cumulative IPC: 0.38494 (Simulation time: 0 hr 13 min 6 sec) 
Heartbeat CPU  0 instructions:  453000001 cycles: 1024308113 heartbeat IPC: 0.35805 cumulative IPC: 0.38486 (Simulation time: 0 hr 13 min 7 sec) 
Heartbeat CPU  0 instructions:  454000003 cycles: 1027159405 heartbeat IPC: 0.35072 cumulative IPC: 0.38475 (Simulation time: 0 hr 13 min 9 sec) 
Heartbeat CPU  0 instructions:  455000000 cycles: 1029870542 heartbeat IPC: 0.36885 cumulative IPC: 0.38470 (Simulation time: 0 hr 13 min 11 sec) 
Heartbeat CPU  0 instructions:  456000000 cycles: 1032687031 heartbeat IPC: 0.35505 cumulative IPC: 0.38461 (Simulation time: 0 hr 13 min 13 sec) 
Heartbeat CPU  0 instructions:  457000000 cycles: 1035407658 heartbeat IPC: 0.36756 cumulative IPC: 0.38456 (Simulation time: 0 hr 13 min 15 sec) 
Heartbeat CPU  0 instructions:  458000003 cycles: 1038190054 heartbeat IPC: 0.35940 cumulative IPC: 0.38449 (Simulation time: 0 hr 13 min 17 sec) 
Heartbeat CPU  0 instructions:  459000001 cycles: 1040919457 heartbeat IPC: 0.36638 cumulative IPC: 0.38444 (Simulation time: 0 hr 13 min 19 sec) 
Heartbeat CPU  0 instructions:  460000000 cycles: 1043630781 heartbeat IPC: 0.36882 cumulative IPC: 0.38439 (Simulation time: 0 hr 13 min 20 sec) 
Heartbeat CPU  0 instructions:  461000002 cycles: 1046376879 heartbeat IPC: 0.36415 cumulative IPC: 0.38433 (Simulation time: 0 hr 13 min 22 sec) 
Heartbeat CPU  0 instructions:  462000001 cycles: 1049102574 heartbeat IPC: 0.36688 cumulative IPC: 0.38428 (Simulation time: 0 hr 13 min 24 sec) 
Heartbeat CPU  0 instructions:  463000001 cycles: 1051924730 heartbeat IPC: 0.35434 cumulative IPC: 0.38419 (Simulation time: 0 hr 13 min 26 sec) 
Heartbeat CPU  0 instructions:  464000000 cycles: 1054717454 heartbeat IPC: 0.35807 cumulative IPC: 0.38411 (Simulation time: 0 hr 13 min 28 sec) 
Heartbeat CPU  0 instructions:  465000001 cycles: 1057344511 heartbeat IPC: 0.38065 cumulative IPC: 0.38411 (Simulation time: 0 hr 13 min 30 sec) 
Heartbeat CPU  0 instructions:  466000000 cycles: 1060059985 heartbeat IPC: 0.36826 cumulative IPC: 0.38406 (Simulation time: 0 hr 13 min 32 sec) 
Heartbeat CPU  0 instructions:  467000003 cycles: 1062762622 heartbeat IPC: 0.37001 cumulative IPC: 0.38402 (Simulation time: 0 hr 13 min 34 sec) 
Heartbeat CPU  0 instructions:  468000000 cycles: 1065396624 heartbeat IPC: 0.37965 cumulative IPC: 0.38401 (Simulation time: 0 hr 13 min 35 sec) 
Heartbeat CPU  0 instructions:  469000002 cycles: 1067952410 heartbeat IPC: 0.39127 cumulative IPC: 0.38403 (Simulation time: 0 hr 13 min 37 sec) 
Heartbeat CPU  0 instructions:  470000000 cycles: 1070650891 heartbeat IPC: 0.37058 cumulative IPC: 0.38399 (Simulation time: 0 hr 13 min 39 sec) 
Heartbeat CPU  0 instructions:  471000000 cycles: 1073236049 heartbeat IPC: 0.38682 cumulative IPC: 0.38400 (Simulation time: 0 hr 13 min 41 sec) 
Heartbeat CPU  0 instructions:  472000000 cycles: 1075893591 heartbeat IPC: 0.37629 cumulative IPC: 0.38398 (Simulation time: 0 hr 13 min 43 sec) 
Heartbeat CPU  0 instructions:  473000001 cycles: 1078815165 heartbeat IPC: 0.34228 cumulative IPC: 0.38385 (Simulation time: 0 hr 13 min 45 sec) 
Heartbeat CPU  0 instructions:  474000000 cycles: 1081420093 heartbeat IPC: 0.38389 cumulative IPC: 0.38385 (Simulation time: 0 hr 13 min 47 sec) 
Heartbeat CPU  0 instructions:  475000000 cycles: 1084231235 heartbeat IPC: 0.35573 cumulative IPC: 0.38377 (Simulation time: 0 hr 13 min 48 sec) 
Heartbeat CPU  0 instructions:  476000000 cycles: 1087037833 heartbeat IPC: 0.35630 cumulative IPC: 0.38369 (Simulation time: 0 hr 13 min 50 sec) 
Heartbeat CPU  0 instructions:  477000003 cycles: 1089738703 heartbeat IPC: 0.37025 cumulative IPC: 0.38365 (Simulation time: 0 hr 13 min 52 sec) 
Heartbeat CPU  0 instructions:  478000001 cycles: 1092398286 heartbeat IPC: 0.37600 cumulative IPC: 0.38363 (Simulation time: 0 hr 13 min 54 sec) 
Heartbeat CPU  0 instructions:  479000001 cycles: 1095003791 heartbeat IPC: 0.38380 cumulative IPC: 0.38363 (Simulation time: 0 hr 13 min 56 sec) 
Heartbeat CPU  0 instructions:  480000000 cycles: 1097852270 heartbeat IPC: 0.35106 cumulative IPC: 0.38354 (Simulation time: 0 hr 13 min 58 sec) 
Heartbeat CPU  0 instructions:  481000000 cycles: 1100497197 heartbeat IPC: 0.37808 cumulative IPC: 0.38353 (Simulation time: 0 hr 13 min 59 sec) 
Heartbeat CPU  0 instructions:  482000000 cycles: 1103123761 heartbeat IPC: 0.38073 cumulative IPC: 0.38352 (Simulation time: 0 hr 14 min 1 sec) 
Heartbeat CPU  0 instructions:  483000000 cycles: 1105644966 heartbeat IPC: 0.39664 cumulative IPC: 0.38355 (Simulation time: 0 hr 14 min 3 sec) 
Heartbeat CPU  0 instructions:  484000000 cycles: 1108333359 heartbeat IPC: 0.37197 cumulative IPC: 0.38352 (Simulation time: 0 hr 14 min 5 sec) 
Heartbeat CPU  0 instructions:  485000000 cycles: 1110989666 heartbeat IPC: 0.37646 cumulative IPC: 0.38350 (Simulation time: 0 hr 14 min 7 sec) 
Heartbeat CPU  0 instructions:  486000000 cycles: 1113597883 heartbeat IPC: 0.38340 cumulative IPC: 0.38350 (Simulation time: 0 hr 14 min 8 sec) 
Heartbeat CPU  0 instructions:  487000003 cycles: 1116390981 heartbeat IPC: 0.35803 cumulative IPC: 0.38343 (Simulation time: 0 hr 14 min 10 sec) 
Heartbeat CPU  0 instructions:  488000000 cycles: 1119193768 heartbeat IPC: 0.35679 cumulative IPC: 0.38336 (Simulation time: 0 hr 14 min 12 sec) 
Heartbeat CPU  0 instructions:  489000000 cycles: 1121902882 heartbeat IPC: 0.36912 cumulative IPC: 0.38332 (Simulation time: 0 hr 14 min 14 sec) 
Heartbeat CPU  0 instructions:  490000003 cycles: 1124662462 heartbeat IPC: 0.36238 cumulative IPC: 0.38326 (Simulation time: 0 hr 14 min 16 sec) 
Heartbeat CPU  0 instructions:  491000001 cycles: 1127385366 heartbeat IPC: 0.36725 cumulative IPC: 0.38322 (Simulation time: 0 hr 14 min 18 sec) 
Heartbeat CPU  0 instructions:  492000000 cycles: 1130162605 heartbeat IPC: 0.36007 cumulative IPC: 0.38316 (Simulation time: 0 hr 14 min 20 sec) 
Heartbeat CPU  0 instructions:  493000000 cycles: 1132843818 heartbeat IPC: 0.37297 cumulative IPC: 0.38313 (Simulation time: 0 hr 14 min 21 sec) 
Heartbeat CPU  0 instructions:  494000000 cycles: 1135455570 heartbeat IPC: 0.38288 cumulative IPC: 0.38313 (Simulation time: 0 hr 14 min 23 sec) 
Heartbeat CPU  0 instructions:  495000001 cycles: 1138291366 heartbeat IPC: 0.35264 cumulative IPC: 0.38305 (Simulation time: 0 hr 14 min 25 sec) 
Heartbeat CPU  0 instructions:  496000000 cycles: 1141043049 heartbeat IPC: 0.36341 cumulative IPC: 0.38299 (Simulation time: 0 hr 14 min 27 sec) 
Heartbeat CPU  0 instructions:  497000001 cycles: 1143814155 heartbeat IPC: 0.36087 cumulative IPC: 0.38293 (Simulation time: 0 hr 14 min 29 sec) 
Heartbeat CPU  0 instructions:  498000000 cycles: 1146579730 heartbeat IPC: 0.36159 cumulative IPC: 0.38288 (Simulation time: 0 hr 14 min 31 sec) 
Heartbeat CPU  0 instructions:  499000002 cycles: 1149316136 heartbeat IPC: 0.36544 cumulative IPC: 0.38283 (Simulation time: 0 hr 14 min 33 sec) 
Heartbeat CPU  0 instructions:  500000000 cycles: 1151991163 heartbeat IPC: 0.37383 cumulative IPC: 0.38281 (Simulation time: 0 hr 14 min 34 sec) 
Heartbeat CPU  0 instructions:  501000000 cycles: 1154679173 heartbeat IPC: 0.37202 cumulative IPC: 0.38278 (Simulation time: 0 hr 14 min 36 sec) 
Heartbeat CPU  0 instructions:  502000000 cycles: 1157459621 heartbeat IPC: 0.35965 cumulative IPC: 0.38272 (Simulation time: 0 hr 14 min 38 sec) 
Heartbeat CPU  0 instructions:  503000002 cycles: 1160238670 heartbeat IPC: 0.35984 cumulative IPC: 0.38266 (Simulation time: 0 hr 14 min 40 sec) 
Heartbeat CPU  0 instructions:  504000000 cycles: 1163069620 heartbeat IPC: 0.35324 cumulative IPC: 0.38258 (Simulation time: 0 hr 14 min 42 sec) 
Heartbeat CPU  0 instructions:  505000001 cycles: 1165655325 heartbeat IPC: 0.38674 cumulative IPC: 0.38259 (Simulation time: 0 hr 14 min 44 sec) 
Heartbeat CPU  0 instructions:  506000001 cycles: 1168470561 heartbeat IPC: 0.35521 cumulative IPC: 0.38252 (Simulation time: 0 hr 14 min 45 sec) 
Heartbeat CPU  0 instructions:  507000003 cycles: 1171289212 heartbeat IPC: 0.35478 cumulative IPC: 0.38245 (Simulation time: 0 hr 14 min 47 sec) 
Heartbeat CPU  0 instructions:  508000000 cycles: 1174024751 heartbeat IPC: 0.36556 cumulative IPC: 0.38240 (Simulation time: 0 hr 14 min 49 sec) 
Heartbeat CPU  0 instructions:  509000001 cycles: 1176564740 heartbeat IPC: 0.39370 cumulative IPC: 0.38243 (Simulation time: 0 hr 14 min 51 sec) 
Heartbeat CPU  0 instructions:  510000003 cycles: 1179284062 heartbeat IPC: 0.36774 cumulative IPC: 0.38239 (Simulation time: 0 hr 14 min 53 sec) 
Heartbeat CPU  0 instructions:  511000001 cycles: 1181682362 heartbeat IPC: 0.41696 cumulative IPC: 0.38247 (Simulation time: 0 hr 14 min 54 sec) 
Heartbeat CPU  0 instructions:  512000000 cycles: 1184424746 heartbeat IPC: 0.36465 cumulative IPC: 0.38242 (Simulation time: 0 hr 14 min 56 sec) 
Heartbeat CPU  0 instructions:  513000001 cycles: 1187109125 heartbeat IPC: 0.37253 cumulative IPC: 0.38240 (Simulation time: 0 hr 14 min 58 sec) 
Heartbeat CPU  0 instructions:  514000002 cycles: 1189775366 heartbeat IPC: 0.37506 cumulative IPC: 0.38238 (Simulation time: 0 hr 15 min 0 sec) 
Heartbeat CPU  0 instructions:  515000001 cycles: 1192276029 heartbeat IPC: 0.39989 cumulative IPC: 0.38242 (Simulation time: 0 hr 15 min 2 sec) 
Heartbeat CPU  0 instructions:  516000000 cycles: 1194759266 heartbeat IPC: 0.40270 cumulative IPC: 0.38247 (Simulation time: 0 hr 15 min 3 sec) 
Heartbeat CPU  0 instructions:  517000002 cycles: 1197581181 heartbeat IPC: 0.35437 cumulative IPC: 0.38239 (Simulation time: 0 hr 15 min 5 sec) 
Heartbeat CPU  0 instructions:  518000001 cycles: 1200400413 heartbeat IPC: 0.35471 cumulative IPC: 0.38232 (Simulation time: 0 hr 15 min 7 sec) 
Heartbeat CPU  0 instructions:  519000001 cycles: 1203079935 heartbeat IPC: 0.37320 cumulative IPC: 0.38230 (Simulation time: 0 hr 15 min 9 sec) 
Heartbeat CPU  0 instructions:  520000000 cycles: 1205881610 heartbeat IPC: 0.35693 cumulative IPC: 0.38224 (Simulation time: 0 hr 15 min 11 sec) 
Heartbeat CPU  0 instructions:  521000000 cycles: 1208531424 heartbeat IPC: 0.37738 cumulative IPC: 0.38222 (Simulation time: 0 hr 15 min 13 sec) 
Heartbeat CPU  0 instructions:  522000000 cycles: 1211139945 heartbeat IPC: 0.38336 cumulative IPC: 0.38223 (Simulation time: 0 hr 15 min 14 sec) 
Heartbeat CPU  0 instructions:  523000002 cycles: 1213579171 heartbeat IPC: 0.40997 cumulative IPC: 0.38229 (Simulation time: 0 hr 15 min 16 sec) 
Heartbeat CPU  0 instructions:  524000000 cycles: 1216347072 heartbeat IPC: 0.36128 cumulative IPC: 0.38224 (Simulation time: 0 hr 15 min 18 sec) 
Heartbeat CPU  0 instructions:  525000000 cycles: 1218920390 heartbeat IPC: 0.38860 cumulative IPC: 0.38225 (Simulation time: 0 hr 15 min 20 sec) 
Heartbeat CPU  0 instructions:  526000000 cycles: 1221497496 heartbeat IPC: 0.38803 cumulative IPC: 0.38226 (Simulation time: 0 hr 15 min 22 sec) 
Heartbeat CPU  0 instructions:  527000000 cycles: 1223775065 heartbeat IPC: 0.43906 cumulative IPC: 0.38238 (Simulation time: 0 hr 15 min 23 sec) 
Heartbeat CPU  0 instructions:  528000000 cycles: 1226235641 heartbeat IPC: 0.40641 cumulative IPC: 0.38243 (Simulation time: 0 hr 15 min 25 sec) 
Heartbeat CPU  0 instructions:  529000001 cycles: 1228581944 heartbeat IPC: 0.42620 cumulative IPC: 0.38252 (Simulation time: 0 hr 15 min 27 sec) 
Heartbeat CPU  0 instructions:  530000000 cycles: 1230789984 heartbeat IPC: 0.45289 cumulative IPC: 0.38266 (Simulation time: 0 hr 15 min 28 sec) 
Heartbeat CPU  0 instructions:  531000001 cycles: 1233319312 heartbeat IPC: 0.39536 cumulative IPC: 0.38269 (Simulation time: 0 hr 15 min 30 sec) 
Heartbeat CPU  0 instructions:  532000000 cycles: 1235472577 heartbeat IPC: 0.46441 cumulative IPC: 0.38285 (Simulation time: 0 hr 15 min 32 sec) 
Heartbeat CPU  0 instructions:  533000000 cycles: 1238270855 heartbeat IPC: 0.35736 cumulative IPC: 0.38278 (Simulation time: 0 hr 15 min 34 sec) 
Heartbeat CPU  0 instructions:  534000003 cycles: 1240631886 heartbeat IPC: 0.42355 cumulative IPC: 0.38287 (Simulation time: 0 hr 15 min 36 sec) 
Heartbeat CPU  0 instructions:  535000002 cycles: 1243365372 heartbeat IPC: 0.36583 cumulative IPC: 0.38283 (Simulation time: 0 hr 15 min 37 sec) 
Heartbeat CPU  0 instructions:  536000000 cycles: 1245732408 heartbeat IPC: 0.42247 cumulative IPC: 0.38291 (Simulation time: 0 hr 15 min 39 sec) 
Heartbeat CPU  0 instructions:  537000002 cycles: 1248227446 heartbeat IPC: 0.40080 cumulative IPC: 0.38295 (Simulation time: 0 hr 15 min 41 sec) 
Heartbeat CPU  0 instructions:  538000000 cycles: 1250712151 heartbeat IPC: 0.40246 cumulative IPC: 0.38299 (Simulation time: 0 hr 15 min 43 sec) 
Heartbeat CPU  0 instructions:  539000001 cycles: 1253255623 heartbeat IPC: 0.39316 cumulative IPC: 0.38301 (Simulation time: 0 hr 15 min 44 sec) 
Heartbeat CPU  0 instructions:  540000000 cycles: 1255796306 heartbeat IPC: 0.39359 cumulative IPC: 0.38304 (Simulation time: 0 hr 15 min 46 sec) 
Heartbeat CPU  0 instructions:  541000001 cycles: 1258557390 heartbeat IPC: 0.36218 cumulative IPC: 0.38299 (Simulation time: 0 hr 15 min 48 sec) 
Heartbeat CPU  0 instructions:  542000001 cycles: 1261215320 heartbeat IPC: 0.37623 cumulative IPC: 0.38297 (Simulation time: 0 hr 15 min 50 sec) 
Heartbeat CPU  0 instructions:  543000002 cycles: 1264000502 heartbeat IPC: 0.35904 cumulative IPC: 0.38291 (Simulation time: 0 hr 15 min 52 sec) 
Heartbeat CPU  0 instructions:  544000000 cycles: 1266648236 heartbeat IPC: 0.37768 cumulative IPC: 0.38290 (Simulation time: 0 hr 15 min 54 sec) 
Heartbeat CPU  0 instructions:  545000001 cycles: 1269311873 heartbeat IPC: 0.37543 cumulative IPC: 0.38289 (Simulation time: 0 hr 15 min 55 sec) 
Heartbeat CPU  0 instructions:  546000001 cycles: 1272032489 heartbeat IPC: 0.36756 cumulative IPC: 0.38285 (Simulation time: 0 hr 15 min 57 sec) 
Heartbeat CPU  0 instructions:  547000000 cycles: 1274698157 heartbeat IPC: 0.37514 cumulative IPC: 0.38283 (Simulation time: 0 hr 15 min 59 sec) 
Heartbeat CPU  0 instructions:  548000000 cycles: 1277255077 heartbeat IPC: 0.39110 cumulative IPC: 0.38285 (Simulation time: 0 hr 16 min 1 sec) 
Heartbeat CPU  0 instructions:  549000000 cycles: 1279782110 heartbeat IPC: 0.39572 cumulative IPC: 0.38288 (Simulation time: 0 hr 16 min 2 sec) 
Heartbeat CPU  0 instructions:  550000001 cycles: 1282666336 heartbeat IPC: 0.34671 cumulative IPC: 0.38279 (Simulation time: 0 hr 16 min 4 sec) 
Heartbeat CPU  0 instructions:  551000003 cycles: 1285324659 heartbeat IPC: 0.37618 cumulative IPC: 0.38277 (Simulation time: 0 hr 16 min 6 sec) 
Heartbeat CPU  0 instructions:  552000000 cycles: 1287910850 heartbeat IPC: 0.38667 cumulative IPC: 0.38278 (Simulation time: 0 hr 16 min 8 sec) 
Heartbeat CPU  0 instructions:  553000002 cycles: 1290529000 heartbeat IPC: 0.38195 cumulative IPC: 0.38278 (Simulation time: 0 hr 16 min 10 sec) 
Heartbeat CPU  0 instructions:  554000000 cycles: 1292985222 heartbeat IPC: 0.40713 cumulative IPC: 0.38283 (Simulation time: 0 hr 16 min 11 sec) 
Heartbeat CPU  0 instructions:  555000003 cycles: 1295749407 heartbeat IPC: 0.36177 cumulative IPC: 0.38278 (Simulation time: 0 hr 16 min 13 sec) 
Heartbeat CPU  0 instructions:  556000000 cycles: 1298401184 heartbeat IPC: 0.37710 cumulative IPC: 0.38277 (Simulation time: 0 hr 16 min 15 sec) 
Heartbeat CPU  0 instructions:  557000000 cycles: 1301031113 heartbeat IPC: 0.38024 cumulative IPC: 0.38276 (Simulation time: 0 hr 16 min 17 sec) 
Heartbeat CPU  0 instructions:  558000001 cycles: 1303814442 heartbeat IPC: 0.35928 cumulative IPC: 0.38271 (Simulation time: 0 hr 16 min 19 sec) 
Heartbeat CPU  0 instructions:  559000001 cycles: 1306716734 heartbeat IPC: 0.34456 cumulative IPC: 0.38262 (Simulation time: 0 hr 16 min 21 sec) 
Heartbeat CPU  0 instructions:  560000000 cycles: 1309541034 heartbeat IPC: 0.35407 cumulative IPC: 0.38255 (Simulation time: 0 hr 16 min 22 sec) 
Heartbeat CPU  0 instructions:  561000002 cycles: 1312293084 heartbeat IPC: 0.36337 cumulative IPC: 0.38251 (Simulation time: 0 hr 16 min 24 sec) 
Heartbeat CPU  0 instructions:  562000002 cycles: 1314924260 heartbeat IPC: 0.38006 cumulative IPC: 0.38250 (Simulation time: 0 hr 16 min 26 sec) 
Heartbeat CPU  0 instructions:  563000000 cycles: 1317712565 heartbeat IPC: 0.35864 cumulative IPC: 0.38245 (Simulation time: 0 hr 16 min 28 sec) 
Heartbeat CPU  0 instructions:  564000000 cycles: 1320427613 heartbeat IPC: 0.36832 cumulative IPC: 0.38241 (Simulation time: 0 hr 16 min 30 sec) 
Heartbeat CPU  0 instructions:  565000000 cycles: 1323207282 heartbeat IPC: 0.35976 cumulative IPC: 0.38236 (Simulation time: 0 hr 16 min 32 sec) 
Heartbeat CPU  0 instructions:  566000001 cycles: 1325731439 heartbeat IPC: 0.39617 cumulative IPC: 0.38239 (Simulation time: 0 hr 16 min 33 sec) 
Heartbeat CPU  0 instructions:  567000000 cycles: 1328528154 heartbeat IPC: 0.35756 cumulative IPC: 0.38233 (Simulation time: 0 hr 16 min 35 sec) 
Heartbeat CPU  0 instructions:  568000000 cycles: 1331180197 heartbeat IPC: 0.37707 cumulative IPC: 0.38232 (Simulation time: 0 hr 16 min 37 sec) 
Heartbeat CPU  0 instructions:  569000001 cycles: 1334006072 heartbeat IPC: 0.35387 cumulative IPC: 0.38226 (Simulation time: 0 hr 16 min 39 sec) 
Heartbeat CPU  0 instructions:  570000002 cycles: 1336481593 heartbeat IPC: 0.40396 cumulative IPC: 0.38230 (Simulation time: 0 hr 16 min 41 sec) 
Heartbeat CPU  0 instructions:  571000000 cycles: 1339180524 heartbeat IPC: 0.37052 cumulative IPC: 0.38228 (Simulation time: 0 hr 16 min 43 sec) 
Heartbeat CPU  0 instructions:  572000000 cycles: 1341791469 heartbeat IPC: 0.38300 cumulative IPC: 0.38228 (Simulation time: 0 hr 16 min 44 sec) 
Heartbeat CPU  0 instructions:  573000001 cycles: 1344189621 heartbeat IPC: 0.41699 cumulative IPC: 0.38234 (Simulation time: 0 hr 16 min 46 sec) 
Heartbeat CPU  0 instructions:  574000001 cycles: 1346877072 heartbeat IPC: 0.37210 cumulative IPC: 0.38232 (Simulation time: 0 hr 16 min 48 sec) 
Heartbeat CPU  0 instructions:  575000002 cycles: 1349428830 heartbeat IPC: 0.39189 cumulative IPC: 0.38234 (Simulation time: 0 hr 16 min 50 sec) 
Heartbeat CPU  0 instructions:  576000000 cycles: 1352044269 heartbeat IPC: 0.38234 cumulative IPC: 0.38234 (Simulation time: 0 hr 16 min 51 sec) 
Heartbeat CPU  0 instructions:  577000000 cycles: 1354616731 heartbeat IPC: 0.38873 cumulative IPC: 0.38235 (Simulation time: 0 hr 16 min 53 sec) 
Heartbeat CPU  0 instructions:  578000002 cycles: 1356879472 heartbeat IPC: 0.44194 cumulative IPC: 0.38246 (Simulation time: 0 hr 16 min 55 sec) 
Heartbeat CPU  0 instructions:  579000000 cycles: 1359668105 heartbeat IPC: 0.35860 cumulative IPC: 0.38241 (Simulation time: 0 hr 16 min 57 sec) 
Heartbeat CPU  0 instructions:  580000000 cycles: 1362468055 heartbeat IPC: 0.35715 cumulative IPC: 0.38235 (Simulation time: 0 hr 16 min 59 sec) 
Heartbeat CPU  0 instructions:  581000001 cycles: 1365189541 heartbeat IPC: 0.36745 cumulative IPC: 0.38232 (Simulation time: 0 hr 17 min 0 sec) 
Heartbeat CPU  0 instructions:  582000001 cycles: 1368079156 heartbeat IPC: 0.34607 cumulative IPC: 0.38224 (Simulation time: 0 hr 17 min 2 sec) 
Heartbeat CPU  0 instructions:  583000000 cycles: 1370925325 heartbeat IPC: 0.35135 cumulative IPC: 0.38217 (Simulation time: 0 hr 17 min 4 sec) 
Heartbeat CPU  0 instructions:  584000000 cycles: 1373573352 heartbeat IPC: 0.37764 cumulative IPC: 0.38216 (Simulation time: 0 hr 17 min 6 sec) 
Heartbeat CPU  0 instructions:  585000003 cycles: 1376159454 heartbeat IPC: 0.38668 cumulative IPC: 0.38217 (Simulation time: 0 hr 17 min 8 sec) 
Heartbeat CPU  0 instructions:  586000000 cycles: 1379036322 heartbeat IPC: 0.34760 cumulative IPC: 0.38209 (Simulation time: 0 hr 17 min 10 sec) 
Heartbeat CPU  0 instructions:  587000000 cycles: 1381708069 heartbeat IPC: 0.37429 cumulative IPC: 0.38207 (Simulation time: 0 hr 17 min 11 sec) 
Heartbeat CPU  0 instructions:  588000000 cycles: 1384472875 heartbeat IPC: 0.36169 cumulative IPC: 0.38203 (Simulation time: 0 hr 17 min 13 sec) 
Heartbeat CPU  0 instructions:  589000000 cycles: 1387242456 heartbeat IPC: 0.36107 cumulative IPC: 0.38198 (Simulation time: 0 hr 17 min 15 sec) 
Heartbeat CPU  0 instructions:  590000001 cycles: 1389645655 heartbeat IPC: 0.41611 cumulative IPC: 0.38205 (Simulation time: 0 hr 17 min 17 sec) 
Heartbeat CPU  0 instructions:  591000003 cycles: 1392278544 heartbeat IPC: 0.37981 cumulative IPC: 0.38204 (Simulation time: 0 hr 17 min 19 sec) 
Heartbeat CPU  0 instructions:  592000000 cycles: 1395039513 heartbeat IPC: 0.36219 cumulative IPC: 0.38200 (Simulation time: 0 hr 17 min 20 sec) 
Heartbeat CPU  0 instructions:  593000000 cycles: 1397742827 heartbeat IPC: 0.36992 cumulative IPC: 0.38198 (Simulation time: 0 hr 17 min 22 sec) 
Heartbeat CPU  0 instructions:  594000000 cycles: 1399958400 heartbeat IPC: 0.45135 cumulative IPC: 0.38209 (Simulation time: 0 hr 17 min 24 sec) 
Heartbeat CPU  0 instructions:  595000001 cycles: 1402474119 heartbeat IPC: 0.39750 cumulative IPC: 0.38212 (Simulation time: 0 hr 17 min 26 sec) 
Heartbeat CPU  0 instructions:  596000000 cycles: 1405261409 heartbeat IPC: 0.35877 cumulative IPC: 0.38207 (Simulation time: 0 hr 17 min 28 sec) 
Heartbeat CPU  0 instructions:  597000000 cycles: 1408135390 heartbeat IPC: 0.34795 cumulative IPC: 0.38200 (Simulation time: 0 hr 17 min 29 sec) 
Heartbeat CPU  0 instructions:  598000000 cycles: 1410676420 heartbeat IPC: 0.39354 cumulative IPC: 0.38202 (Simulation time: 0 hr 17 min 31 sec) 
Heartbeat CPU  0 instructions:  599000000 cycles: 1413552973 heartbeat IPC: 0.34764 cumulative IPC: 0.38195 (Simulation time: 0 hr 17 min 33 sec) 
Heartbeat CPU  0 instructions:  600000000 cycles: 1415946983 heartbeat IPC: 0.41771 cumulative IPC: 0.38201 (Simulation time: 0 hr 17 min 35 sec) 
Finished CPU 0 instructions: 500000000 cycles: 1308862464 cumulative IPC: 0.38201 (Simulation time: 0 hr 17 min 35 sec) 

ChampSim completed all CPUs

[ROI Statistics]
Core_0_instructions 500000000
Core_0_cycles 1308862464
Core_0_IPC 0.38201

Core_0_branch_prediction_accuracy 85.18932
Core_0_branch_MPKI 24.43069
Core_0_average_ROB_occupancy_at_mispredict 38.24685

Core_0_L1D_total_access 155509237
Core_0_L1D_total_hit 153193606
Core_0_L1D_total_miss 2315631
Core_0_L1D_loads 89636489
Core_0_L1D_load_hit 88806950
Core_0_L1D_load_miss 829539
Core_0_L1D_RFOs 65872748
Core_0_L1D_RFO_hit 64386656
Core_0_L1D_RFO_miss 1486092
Core_0_L1D_prefetches 0
Core_0_L1D_prefetch_hit 0
Core_0_L1D_prefetch_miss 0
Core_0_L1D_writebacks 0
Core_0_L1D_writeback_hit 0
Core_0_L1D_writeback_miss 0
Core_0_L1D_prefetch_requested 0
Core_0_L1D_prefetch_dropped 0
Core_0_L1D_prefetch_issued 0
Core_0_L1D_prefetch_filled 0
Core_0_L1D_prefetch_useful 0
Core_0_L1D_prefetch_useless 0
Core_0_L1D_prefetch_late 0
Core_0_L1D_average_miss_latency 214.40349

Core_0_L1D_rq_access 125889409
Core_0_L1D_rq_forward 0
Core_0_L1D_rq_merged 36162515
Core_0_L1D_rq_to_cache 89726287
Core_0_L1D_rq_full 0

Core_0_L1D_wq_access 70505122
Core_0_L1D_wq_forward 607
Core_0_L1D_wq_merged 423374
Core_0_L1D_wq_to_cache 70081748
Core_0_L1D_wq_full 19036625

Core_0_L1D_pq_access 0
Core_0_L1D_pq_forward 0
Core_0_L1D_pq_merged 0
Core_0_L1D_pq_to_cache 0
Core_0_L1D_pq_full 0

Core_0_L1D_acc_epochs 1380507
Core_0_L1D_acc_level_0 1380507
Core_0_L1D_acc_level_1 0
Core_0_L1D_acc_level_2 0
Core_0_L1D_acc_level_3 0
Core_0_L1D_acc_level_4 0
Core_0_L1D_acc_level_5 0
Core_0_L1D_acc_level_6 0
Core_0_L1D_acc_level_7 0
Core_0_L1D_acc_level_8 0
Core_0_L1D_acc_level_9 0

Core_0_L1I_total_access 100120865
Core_0_L1I_total_hit 98175919
Core_0_L1I_total_miss 1944946
Core_0_L1I_loads 100120865
Core_0_L1I_load_hit 98175919
Core_0_L1I_load_miss 1944946
Core_0_L1I_RFOs 0
Core_0_L1I_RFO_hit 0
Core_0_L1I_RFO_miss 0
Core_0_L1I_prefetches 0
Core_0_L1I_prefetch_hit 0
Core_0_L1I_prefetch_miss 0
Core_0_L1I_writebacks 0
Core_0_L1I_writeback_hit 0
Core_0_L1I_writeback_miss 0
Core_0_L1I_prefetch_requested 0
Core_0_L1I_prefetch_dropped 0
Core_0_L1I_prefetch_issued 0
Core_0_L1I_prefetch_filled 0
Core_0_L1I_prefetch_useful 0
Core_0_L1I_prefetch_useless 0
Core_0_L1I_prefetch_late 0
Core_0_L1I_average_miss_latency 12.26187

Core_0_L1I_rq_access 499999934
Core_0_L1I_rq_forward 0
Core_0_L1I_rq_merged 399166303
Core_0_L1I_rq_to_cache 100833631
Core_0_L1I_rq_full 0

Core_0_L1I_wq_access 0
Core_0_L1I_wq_forward 0
Core_0_L1I_wq_merged 0
Core_0_L1I_wq_to_cache 0
Core_0_L1I_wq_full 0

Core_0_L1I_pq_access 0
Core_0_L1I_pq_forward 0
Core_0_L1I_pq_merged 0
Core_0_L1I_pq_to_cache 0
Core_0_L1I_pq_full 0

Core_0_L1I_acc_epochs 1380507
Core_0_L1I_acc_level_0 1380507
Core_0_L1I_acc_level_1 0
Core_0_L1I_acc_level_2 0
Core_0_L1I_acc_level_3 0
Core_0_L1I_acc_level_4 0
Core_0_L1I_acc_level_5 0
Core_0_L1I_acc_level_6 0
Core_0_L1I_acc_level_7 0
Core_0_L1I_acc_level_8 0
Core_0_L1I_acc_level_9 0

Core_0_L2C_total_access 6577566
Core_0_L2C_total_hit 5200345
Core_0_L2C_total_miss 1377221
Core_0_L2C_loads 2774462
Core_0_L2C_load_hit 2541828
Core_0_L2C_load_miss 232634
Core_0_L2C_RFOs 1486048
Core_0_L2C_RFO_hit 602763
Core_0_L2C_RFO_miss 883285
Core_0_L2C_prefetches 562876
Core_0_L2C_prefetch_hit 304072
Core_0_L2C_prefetch_miss 258804
Core_0_L2C_writebacks 1754180
Core_0_L2C_writeback_hit 1751682
Core_0_L2C_writeback_miss 2498
Core_0_L2C_prefetch_requested 1393862
Core_0_L2C_prefetch_dropped 0
Core_0_L2C_prefetch_issued 1393862
Core_0_L2C_prefetch_filled 290265
Core_0_L2C_prefetch_useful 244484
Core_0_L2C_prefetch_useless 45524
Core_0_L2C_prefetch_late 4072
Core_0_L2C_average_miss_latency 352.33904

Core_0_L2C_rq_access 4260577
Core_0_L2C_rq_forward 0
Core_0_L2C_rq_merged 0
Core_0_L2C_rq_to_cache 4260510
Core_0_L2C_rq_full 0

Core_0_L2C_wq_access 1754180
Core_0_L2C_wq_forward 67
Core_0_L2C_wq_merged 0
Core_0_L2C_wq_to_cache 1754180
Core_0_L2C_wq_full 0

Core_0_L2C_pq_access 1393862
Core_0_L2C_pq_forward 0
Core_0_L2C_pq_merged 0
Core_0_L2C_pq_to_cache 1393862
Core_0_L2C_pq_full 0

Core_0_L2C_acc_epochs 1380507
Core_0_L2C_acc_level_0 1339040
Core_0_L2C_acc_level_1 13193
Core_0_L2C_acc_level_2 9236
Core_0_L2C_acc_level_3 2913
Core_0_L2C_acc_level_4 1583
Core_0_L2C_acc_level_5 6351
Core_0_L2C_acc_level_6 1187
Core_0_L2C_acc_level_7 1065
Core_0_L2C_acc_level_8 712
Core_0_L2C_acc_level_9 5227

Core_0_LLC_total_access 3083600
Core_0_LLC_total_hit 1132285
Core_0_LLC_total_miss 1951315
Core_0_LLC_loads 228671
Core_0_LLC_load_hit 149956
Core_0_LLC_load_miss 78715
Core_0_LLC_RFOs 883275
Core_0_LLC_RFO_hit 132338
Core_0_LLC_RFO_miss 750937
Core_0_LLC_prefetches 938101
Core_0_LLC_prefetch_hit 495975
Core_0_LLC_prefetch_miss 442126
Core_0_LLC_writebacks 1033553
Core_0_LLC_writeback_hit 354016
Core_0_LLC_writeback_miss 679537
Core_0_LLC_prefetch_requested 0
Core_0_LLC_prefetch_dropped 0
Core_0_LLC_prefetch_issued 0
Core_0_LLC_prefetch_filled 500575
Core_0_LLC_prefetch_useful 47994
Core_0_LLC_prefetch_useless 438297
Core_0_LLC_prefetch_late 80
Core_0_LLC_average_miss_latency 271.15158

Core_0_LLC_rq_access 1111950
Core_0_LLC_rq_forward 0
Core_0_LLC_rq_merged 0
Core_0_LLC_rq_to_cache 1111946
Core_0_LLC_rq_full 0

Core_0_LLC_wq_access 1033553
Core_0_LLC_wq_forward 4
Core_0_LLC_wq_merged 0
Core_0_LLC_wq_to_cache 1033553
Core_0_LLC_wq_full 0

Core_0_LLC_pq_access 1028772
Core_0_LLC_pq_forward 0
Core_0_LLC_pq_merged 0
Core_0_LLC_pq_to_cache 1028772
Core_0_LLC_pq_full 0

Core_0_LLC_acc_epochs 1382761
Core_0_LLC_acc_level_0 1351024
Core_0_LLC_acc_level_1 18653
Core_0_LLC_acc_level_2 7968
Core_0_LLC_acc_level_3 699
Core_0_LLC_acc_level_4 14
Core_0_LLC_acc_level_5 3804
Core_0_LLC_acc_level_6 30
Core_0_LLC_acc_level_7 70
Core_0_LLC_acc_level_8 8
Core_0_LLC_acc_level_9 491

Core_0_major_page_fault 0
Core_0_minor_page_fault 6639

[Bingo] PHT Access: 195870
[Bingo] PHT Hit PC+Addr: 64349
[Bingo] PHT Hit PC+Offs: 111060
[Bingo] PHT Miss: 20461
[Bingo] Prefetch PC+Addr: 0
[Bingo] Prefetch PC+Offs: 0
[Bingo] Useful PC+Addr: 0
[Bingo] Useful PC+Offs: 0
[Bingo] Useless PC+Addr: 0
[Bingo] Useless PC+Offs: 0
[Bingo] L1 Prefetch per Region: 0.00000
[Bingo] L2 Prefetch per Region: 4.60418
[Bingo] L3 Prefetch per Region: 4.34955
[Bingo] No Prefetch per Region: 23.04626
[Bingo] Number of Voters Mean: 6.50824
[Bingo] Number of Voters SD: 3.89355

Channel_0_RQ_row_buffer_hit 461390
Channel_0_RQ_row_buffer_miss 810384
Channel_0_WQ_row_buffer_hit 282368
Channel_0_WQ_row_buffer_miss 590613
Channel_0_WQ_full 1314810
Channel_0_dbus_congested 1021122

avg_congested_cycle 4

DRAM_bw_pochs 5531043
DRAM_bw_level_0 5452267
DRAM_bw_level_1 69896
DRAM_bw_level_2 4323
DRAM_bw_level_3 4557
