*************************************************
   ChampSim Multicore Out-of-Order Simulator
   Last compiled: Dec 11 2024 17:59:53
*************************************************
parsing config file: /home/functionmain/桌面/Pythia/config/bingo.ini

trace_0 /home/functionmain/桌面/Pythia/traces/445.gobmk-30B.champsimtrace.xz
adding L2C_PREFETCHER: Bingo
Initialize SHIP state
warmup_instructions 100000000
simulation_instructions 500000000
champsim_seed 165
measure_ipc 0
measure_ipc_epoch 1000
measure_dram_bw 1
measure_dram_bw_epoch 256
measure_cache_acc 1
measure_cache_acc_epoch 1024
l1d_perfect 0
l2c_perfect 0
llc_perfect 0
l1d_semi_perfect 0
l2c_semi_perfect 0
llc_semi_perfect 0
semi_perfect_cache_page_buffer_size 64

num_cpus 1
cpu_freq 4000
dram_io_freq 1200
page_size 4096
block_size 64
max_read_per_cycle 8
max_fill_per_cycle 1
dram_channels 1
log2_dram_channels 0
dram_ranks 1
dram_banks 8
dram_rows 65536
dram_columns 128
dram_row_size 8
dram_size 4096
dram_pages 1048576

fetch_width 6
decode_width 6
exec_width 4
lq_width 2
sq_width 2
retire_width 4
scheduler_size 128
branch_mispredict_penalty 20
rob_size 256
lq_size 72
sq_size 56
num_instr_destinations_sparc 4
num_instr_destinations 2
num_instr_sources 4

itlb_set 16
itlb_way 8
itlb_rq_size 16
itlb_wq_size 16
itlb_pq_size 0
itlb_mshr_size 8
itlb_latency 1

dtlb_set 16
dtlb_way 4
dtlb_rq_size 16
dtlb_wq_size 16
dtlb_pq_size 0
dtlb_mshr_size 8
dtlb_latency 1

stlb_set 128
stlb_way 12
stlb_rq_size 32
stlb_wq_size 32
stlb_pq_size 0
stlb_mshr_size 16
stlb_latency 8

l1i_size 32
l1i_set 64
l1i_way 8
l1i_rq_size 64
l1i_wq_size 64
l1i_pq_size 8
l1i_mshr_size 8
l1i_latency 1

l1d_size 32
l1d_set 64
l1d_way 8
l1d_rq_size 64
l1d_wq_size 64
l1d_pq_size 8
l1d_mshr_size 16
l1d_latency 4

l2c_size 256
l2c_set 512
l2c_way 8
l2c_rq_size 32
l2c_wq_size 32
l2c_pq_size 32
l2c_mshr_size 32
l2c_latency 10

llc_size 2048
llc_set 2048
llc_way 16
llc_rq_size 32
llc_wq_size 32
llc_pq_size 32
llc_mshr_size 64
llc_latency 20

dram_channel_width 8
dram_wq_size 64
dram_rq_size 64
tRP 15
tRCD 15
tCAS 12.5
dram_dbus_turn_around_time 30
dram_write_high_wm 56
dram_write_low_wm 48
min_dram_writes_per_switch 16
dram_mtps 1200
dram_dbus_return_time 26

bingo_region_size 2048
bingo_pattern_len 32
bingo_pc_width 16
bingo_min_addr_width 5
bingo_max_addr_width 16
bingo_ft_size 64
bingo_at_size 128
bingo_pht_size 4096
bingo_pht_ways 16
bingo_pf_streamer_size 128
bingo_debug_level 0
bingo_l1d_thresh 1.01
bingo_l2c_thresh 0.8
bingo_llc_thresh 0.05
bingo_pc_address_fill_level L2


Heartbeat CPU  0 instructions:    1000000 cycles:     861996 heartbeat IPC: 1.16010 cumulative IPC: 1.16010 (Simulation time: 0 hr 0 min 1 sec) 
Heartbeat CPU  0 instructions:    2000000 cycles:    1865282 heartbeat IPC: 0.99672 cumulative IPC: 1.07222 (Simulation time: 0 hr 0 min 2 sec) 
Heartbeat CPU  0 instructions:    3000001 cycles:    2991131 heartbeat IPC: 0.88822 cumulative IPC: 1.00297 (Simulation time: 0 hr 0 min 4 sec) 
Heartbeat CPU  0 instructions:    4000000 cycles:    4091971 heartbeat IPC: 0.90840 cumulative IPC: 0.97752 (Simulation time: 0 hr 0 min 5 sec) 
Heartbeat CPU  0 instructions:    5000001 cycles:    5174191 heartbeat IPC: 0.92403 cumulative IPC: 0.96633 (Simulation time: 0 hr 0 min 6 sec) 
Heartbeat CPU  0 instructions:    6000000 cycles:    6296948 heartbeat IPC: 0.89066 cumulative IPC: 0.95284 (Simulation time: 0 hr 0 min 8 sec) 
Heartbeat CPU  0 instructions:    7000001 cycles:    7364161 heartbeat IPC: 0.93702 cumulative IPC: 0.95055 (Simulation time: 0 hr 0 min 9 sec) 
Heartbeat CPU  0 instructions:    8000000 cycles:    8566901 heartbeat IPC: 0.83143 cumulative IPC: 0.93383 (Simulation time: 0 hr 0 min 11 sec) 
Heartbeat CPU  0 instructions:    9000000 cycles:    9686295 heartbeat IPC: 0.89334 cumulative IPC: 0.92915 (Simulation time: 0 hr 0 min 12 sec) 
Heartbeat CPU  0 instructions:   10000003 cycles:   10816029 heartbeat IPC: 0.88517 cumulative IPC: 0.92455 (Simulation time: 0 hr 0 min 14 sec) 
Heartbeat CPU  0 instructions:   11000000 cycles:   11873768 heartbeat IPC: 0.94541 cumulative IPC: 0.92641 (Simulation time: 0 hr 0 min 15 sec) 
Heartbeat CPU  0 instructions:   12000000 cycles:   13017867 heartbeat IPC: 0.87405 cumulative IPC: 0.92181 (Simulation time: 0 hr 0 min 16 sec) 
Heartbeat CPU  0 instructions:   13000001 cycles:   14157291 heartbeat IPC: 0.87764 cumulative IPC: 0.91825 (Simulation time: 0 hr 0 min 18 sec) 
Heartbeat CPU  0 instructions:   14000000 cycles:   15083986 heartbeat IPC: 1.07910 cumulative IPC: 0.92814 (Simulation time: 0 hr 0 min 19 sec) 
Heartbeat CPU  0 instructions:   15000001 cycles:   16047848 heartbeat IPC: 1.03749 cumulative IPC: 0.93470 (Simulation time: 0 hr 0 min 20 sec) 
Heartbeat CPU  0 instructions:   16000000 cycles:   17176785 heartbeat IPC: 0.88579 cumulative IPC: 0.93149 (Simulation time: 0 hr 0 min 22 sec) 
Heartbeat CPU  0 instructions:   17000000 cycles:   18272241 heartbeat IPC: 0.91286 cumulative IPC: 0.93037 (Simulation time: 0 hr 0 min 23 sec) 
Heartbeat CPU  0 instructions:   18000003 cycles:   19388636 heartbeat IPC: 0.89574 cumulative IPC: 0.92838 (Simulation time: 0 hr 0 min 25 sec) 
Heartbeat CPU  0 instructions:   19000001 cycles:   20469770 heartbeat IPC: 0.92495 cumulative IPC: 0.92820 (Simulation time: 0 hr 0 min 26 sec) 
Heartbeat CPU  0 instructions:   20000000 cycles:   21561528 heartbeat IPC: 0.91595 cumulative IPC: 0.92758 (Simulation time: 0 hr 0 min 27 sec) 
Heartbeat CPU  0 instructions:   21000000 cycles:   22753945 heartbeat IPC: 0.83863 cumulative IPC: 0.92292 (Simulation time: 0 hr 0 min 29 sec) 
Heartbeat CPU  0 instructions:   22000003 cycles:   23881250 heartbeat IPC: 0.88707 cumulative IPC: 0.92122 (Simulation time: 0 hr 0 min 30 sec) 
Heartbeat CPU  0 instructions:   23000001 cycles:   24931321 heartbeat IPC: 0.95231 cumulative IPC: 0.92253 (Simulation time: 0 hr 0 min 32 sec) 
Heartbeat CPU  0 instructions:   24000000 cycles:   26048077 heartbeat IPC: 0.89545 cumulative IPC: 0.92137 (Simulation time: 0 hr 0 min 33 sec) 
Heartbeat CPU  0 instructions:   25000000 cycles:   26927319 heartbeat IPC: 1.13734 cumulative IPC: 0.92843 (Simulation time: 0 hr 0 min 34 sec) 
Heartbeat CPU  0 instructions:   26000000 cycles:   27897198 heartbeat IPC: 1.03106 cumulative IPC: 0.93199 (Simulation time: 0 hr 0 min 36 sec) 
Heartbeat CPU  0 instructions:   27000002 cycles:   28999784 heartbeat IPC: 0.90696 cumulative IPC: 0.93104 (Simulation time: 0 hr 0 min 37 sec) 
Heartbeat CPU  0 instructions:   28000000 cycles:   30120406 heartbeat IPC: 0.89236 cumulative IPC: 0.92960 (Simulation time: 0 hr 0 min 38 sec) 
Heartbeat CPU  0 instructions:   29000003 cycles:   31186383 heartbeat IPC: 0.93811 cumulative IPC: 0.92989 (Simulation time: 0 hr 0 min 40 sec) 
Heartbeat CPU  0 instructions:   30000002 cycles:   32278854 heartbeat IPC: 0.91536 cumulative IPC: 0.92940 (Simulation time: 0 hr 0 min 41 sec) 
Heartbeat CPU  0 instructions:   31000003 cycles:   33381194 heartbeat IPC: 0.90716 cumulative IPC: 0.92867 (Simulation time: 0 hr 0 min 43 sec) 
Heartbeat CPU  0 instructions:   32000000 cycles:   34480846 heartbeat IPC: 0.90938 cumulative IPC: 0.92805 (Simulation time: 0 hr 0 min 44 sec) 
Heartbeat CPU  0 instructions:   33000001 cycles:   35468056 heartbeat IPC: 1.01296 cumulative IPC: 0.93041 (Simulation time: 0 hr 0 min 46 sec) 
Heartbeat CPU  0 instructions:   34000001 cycles:   36605876 heartbeat IPC: 0.87887 cumulative IPC: 0.92881 (Simulation time: 0 hr 0 min 47 sec) 
Heartbeat CPU  0 instructions:   35000003 cycles:   37678083 heartbeat IPC: 0.93266 cumulative IPC: 0.92892 (Simulation time: 0 hr 0 min 48 sec) 
Heartbeat CPU  0 instructions:   36000000 cycles:   38869642 heartbeat IPC: 0.83923 cumulative IPC: 0.92617 (Simulation time: 0 hr 0 min 50 sec) 
Heartbeat CPU  0 instructions:   37000002 cycles:   39985602 heartbeat IPC: 0.89609 cumulative IPC: 0.92533 (Simulation time: 0 hr 0 min 51 sec) 
Heartbeat CPU  0 instructions:   38000000 cycles:   41035516 heartbeat IPC: 0.95246 cumulative IPC: 0.92603 (Simulation time: 0 hr 0 min 53 sec) 
Heartbeat CPU  0 instructions:   39000001 cycles:   41929036 heartbeat IPC: 1.11917 cumulative IPC: 0.93014 (Simulation time: 0 hr 0 min 54 sec) 
Heartbeat CPU  0 instructions:   40000000 cycles:   42886664 heartbeat IPC: 1.04425 cumulative IPC: 0.93269 (Simulation time: 0 hr 0 min 55 sec) 
Heartbeat CPU  0 instructions:   41000000 cycles:   43987929 heartbeat IPC: 0.90805 cumulative IPC: 0.93207 (Simulation time: 0 hr 0 min 57 sec) 
Heartbeat CPU  0 instructions:   42000000 cycles:   45112893 heartbeat IPC: 0.88892 cumulative IPC: 0.93100 (Simulation time: 0 hr 0 min 58 sec) 
Heartbeat CPU  0 instructions:   43000003 cycles:   46180465 heartbeat IPC: 0.93671 cumulative IPC: 0.93113 (Simulation time: 0 hr 1 min 0 sec) 
Heartbeat CPU  0 instructions:   44000000 cycles:   47300354 heartbeat IPC: 0.89294 cumulative IPC: 0.93023 (Simulation time: 0 hr 1 min 1 sec) 
Heartbeat CPU  0 instructions:   45000001 cycles:   48334061 heartbeat IPC: 0.96739 cumulative IPC: 0.93102 (Simulation time: 0 hr 1 min 3 sec) 
Heartbeat CPU  0 instructions:   46000000 cycles:   49420408 heartbeat IPC: 0.92052 cumulative IPC: 0.93079 (Simulation time: 0 hr 1 min 4 sec) 
Heartbeat CPU  0 instructions:   47000003 cycles:   50528643 heartbeat IPC: 0.90234 cumulative IPC: 0.93017 (Simulation time: 0 hr 1 min 5 sec) 
Heartbeat CPU  0 instructions:   48000000 cycles:   51497798 heartbeat IPC: 1.03182 cumulative IPC: 0.93208 (Simulation time: 0 hr 1 min 7 sec) 
Heartbeat CPU  0 instructions:   49000000 cycles:   52612276 heartbeat IPC: 0.89728 cumulative IPC: 0.93134 (Simulation time: 0 hr 1 min 8 sec) 
Heartbeat CPU  0 instructions:   50000000 cycles:   53696262 heartbeat IPC: 0.92252 cumulative IPC: 0.93116 (Simulation time: 0 hr 1 min 10 sec) 
Heartbeat CPU  0 instructions:   51000001 cycles:   54763593 heartbeat IPC: 0.93692 cumulative IPC: 0.93128 (Simulation time: 0 hr 1 min 11 sec) 
Heartbeat CPU  0 instructions:   52000000 cycles:   55893233 heartbeat IPC: 0.88524 cumulative IPC: 0.93035 (Simulation time: 0 hr 1 min 13 sec) 
Heartbeat CPU  0 instructions:   53000000 cycles:   56999703 heartbeat IPC: 0.90378 cumulative IPC: 0.92983 (Simulation time: 0 hr 1 min 14 sec) 
Heartbeat CPU  0 instructions:   54000001 cycles:   58196308 heartbeat IPC: 0.83570 cumulative IPC: 0.92789 (Simulation time: 0 hr 1 min 15 sec) 
Heartbeat CPU  0 instructions:   55000002 cycles:   59315929 heartbeat IPC: 0.89316 cumulative IPC: 0.92724 (Simulation time: 0 hr 1 min 17 sec) 
Heartbeat CPU  0 instructions:   56000000 cycles:   60381724 heartbeat IPC: 0.93826 cumulative IPC: 0.92743 (Simulation time: 0 hr 1 min 18 sec) 
Heartbeat CPU  0 instructions:   57000000 cycles:   61469733 heartbeat IPC: 0.91911 cumulative IPC: 0.92729 (Simulation time: 0 hr 1 min 20 sec) 
Heartbeat CPU  0 instructions:   58000001 cycles:   62558977 heartbeat IPC: 0.91807 cumulative IPC: 0.92713 (Simulation time: 0 hr 1 min 21 sec) 
Heartbeat CPU  0 instructions:   59000000 cycles:   63433698 heartbeat IPC: 1.14322 cumulative IPC: 0.93011 (Simulation time: 0 hr 1 min 22 sec) 
Heartbeat CPU  0 instructions:   60000000 cycles:   64552457 heartbeat IPC: 0.89385 cumulative IPC: 0.92948 (Simulation time: 0 hr 1 min 24 sec) 
Heartbeat CPU  0 instructions:   61000000 cycles:   65648632 heartbeat IPC: 0.91226 cumulative IPC: 0.92919 (Simulation time: 0 hr 1 min 25 sec) 
Heartbeat CPU  0 instructions:   62000000 cycles:   66726848 heartbeat IPC: 0.92746 cumulative IPC: 0.92916 (Simulation time: 0 hr 1 min 27 sec) 
Heartbeat CPU  0 instructions:   63000001 cycles:   67744135 heartbeat IPC: 0.98301 cumulative IPC: 0.92997 (Simulation time: 0 hr 1 min 28 sec) 
Heartbeat CPU  0 instructions:   64000000 cycles:   68866594 heartbeat IPC: 0.89090 cumulative IPC: 0.92933 (Simulation time: 0 hr 1 min 29 sec) 
Heartbeat CPU  0 instructions:   65000000 cycles:   69942018 heartbeat IPC: 0.92987 cumulative IPC: 0.92934 (Simulation time: 0 hr 1 min 31 sec) 
Heartbeat CPU  0 instructions:   66000000 cycles:   70998874 heartbeat IPC: 0.94620 cumulative IPC: 0.92959 (Simulation time: 0 hr 1 min 32 sec) 
Heartbeat CPU  0 instructions:   67000000 cycles:   72112409 heartbeat IPC: 0.89804 cumulative IPC: 0.92910 (Simulation time: 0 hr 1 min 34 sec) 
Heartbeat CPU  0 instructions:   68000000 cycles:   73200753 heartbeat IPC: 0.91883 cumulative IPC: 0.92895 (Simulation time: 0 hr 1 min 35 sec) 
Heartbeat CPU  0 instructions:   69000001 cycles:   74309369 heartbeat IPC: 0.90203 cumulative IPC: 0.92855 (Simulation time: 0 hr 1 min 36 sec) 
Heartbeat CPU  0 instructions:   70000000 cycles:   75282262 heartbeat IPC: 1.02786 cumulative IPC: 0.92983 (Simulation time: 0 hr 1 min 38 sec) 
Heartbeat CPU  0 instructions:   71000000 cycles:   76197242 heartbeat IPC: 1.09292 cumulative IPC: 0.93179 (Simulation time: 0 hr 1 min 39 sec) 
Heartbeat CPU  0 instructions:   72000000 cycles:   77296667 heartbeat IPC: 0.90957 cumulative IPC: 0.93148 (Simulation time: 0 hr 1 min 41 sec) 
Heartbeat CPU  0 instructions:   73000001 cycles:   78358716 heartbeat IPC: 0.94158 cumulative IPC: 0.93161 (Simulation time: 0 hr 1 min 42 sec) 
Heartbeat CPU  0 instructions:   74000000 cycles:   79425569 heartbeat IPC: 0.93734 cumulative IPC: 0.93169 (Simulation time: 0 hr 1 min 44 sec) 
Heartbeat CPU  0 instructions:   75000001 cycles:   80368100 heartbeat IPC: 1.06097 cumulative IPC: 0.93321 (Simulation time: 0 hr 1 min 45 sec) 
Heartbeat CPU  0 instructions:   76000000 cycles:   81356122 heartbeat IPC: 1.01212 cumulative IPC: 0.93416 (Simulation time: 0 hr 1 min 47 sec) 
Heartbeat CPU  0 instructions:   77000002 cycles:   82397778 heartbeat IPC: 0.96001 cumulative IPC: 0.93449 (Simulation time: 0 hr 1 min 48 sec) 
Heartbeat CPU  0 instructions:   78000000 cycles:   83348974 heartbeat IPC: 1.05131 cumulative IPC: 0.93582 (Simulation time: 0 hr 1 min 49 sec) 
Heartbeat CPU  0 instructions:   79000003 cycles:   84379587 heartbeat IPC: 0.97030 cumulative IPC: 0.93625 (Simulation time: 0 hr 1 min 51 sec) 
Heartbeat CPU  0 instructions:   80000000 cycles:   85445914 heartbeat IPC: 0.93780 cumulative IPC: 0.93626 (Simulation time: 0 hr 1 min 52 sec) 
Heartbeat CPU  0 instructions:   81000003 cycles:   86534308 heartbeat IPC: 0.91879 cumulative IPC: 0.93604 (Simulation time: 0 hr 1 min 54 sec) 
Heartbeat CPU  0 instructions:   82000000 cycles:   87609199 heartbeat IPC: 0.93032 cumulative IPC: 0.93597 (Simulation time: 0 hr 1 min 55 sec) 
Heartbeat CPU  0 instructions:   83000001 cycles:   88708400 heartbeat IPC: 0.90975 cumulative IPC: 0.93565 (Simulation time: 0 hr 1 min 57 sec) 
Heartbeat CPU  0 instructions:   84000000 cycles:   89747352 heartbeat IPC: 0.96251 cumulative IPC: 0.93596 (Simulation time: 0 hr 1 min 58 sec) 
Heartbeat CPU  0 instructions:   85000000 cycles:   90746930 heartbeat IPC: 1.00042 cumulative IPC: 0.93667 (Simulation time: 0 hr 1 min 59 sec) 
Heartbeat CPU  0 instructions:   86000000 cycles:   91832949 heartbeat IPC: 0.92079 cumulative IPC: 0.93648 (Simulation time: 0 hr 2 min 1 sec) 
Heartbeat CPU  0 instructions:   87000002 cycles:   92919708 heartbeat IPC: 0.92017 cumulative IPC: 0.93629 (Simulation time: 0 hr 2 min 2 sec) 
Heartbeat CPU  0 instructions:   88000000 cycles:   93989826 heartbeat IPC: 0.93447 cumulative IPC: 0.93627 (Simulation time: 0 hr 2 min 4 sec) 
Heartbeat CPU  0 instructions:   89000002 cycles:   95089035 heartbeat IPC: 0.90975 cumulative IPC: 0.93596 (Simulation time: 0 hr 2 min 5 sec) 
Heartbeat CPU  0 instructions:   90000002 cycles:   96176386 heartbeat IPC: 0.91967 cumulative IPC: 0.93578 (Simulation time: 0 hr 2 min 7 sec) 
Heartbeat CPU  0 instructions:   91000001 cycles:   97242854 heartbeat IPC: 0.93767 cumulative IPC: 0.93580 (Simulation time: 0 hr 2 min 8 sec) 
Heartbeat CPU  0 instructions:   92000000 cycles:   98361584 heartbeat IPC: 0.89387 cumulative IPC: 0.93532 (Simulation time: 0 hr 2 min 9 sec) 
Heartbeat CPU  0 instructions:   93000000 cycles:   99400876 heartbeat IPC: 0.96219 cumulative IPC: 0.93561 (Simulation time: 0 hr 2 min 11 sec) 
Heartbeat CPU  0 instructions:   94000001 cycles:  100519052 heartbeat IPC: 0.89431 cumulative IPC: 0.93515 (Simulation time: 0 hr 2 min 12 sec) 
Heartbeat CPU  0 instructions:   95000001 cycles:  101611020 heartbeat IPC: 0.91578 cumulative IPC: 0.93494 (Simulation time: 0 hr 2 min 14 sec) 
Heartbeat CPU  0 instructions:   96000000 cycles:  102700700 heartbeat IPC: 0.91770 cumulative IPC: 0.93476 (Simulation time: 0 hr 2 min 15 sec) 
Heartbeat CPU  0 instructions:   97000001 cycles:  103828895 heartbeat IPC: 0.88637 cumulative IPC: 0.93423 (Simulation time: 0 hr 2 min 16 sec) 
Heartbeat CPU  0 instructions:   98000000 cycles:  104927582 heartbeat IPC: 0.91018 cumulative IPC: 0.93398 (Simulation time: 0 hr 2 min 18 sec) 
Heartbeat CPU  0 instructions:   99000003 cycles:  105999090 heartbeat IPC: 0.93327 cumulative IPC: 0.93397 (Simulation time: 0 hr 2 min 19 sec) 
Heartbeat CPU  0 instructions:  100000000 cycles:  107084525 heartbeat IPC: 0.92129 cumulative IPC: 0.93384 (Simulation time: 0 hr 2 min 21 sec) 

Warmup complete CPU  0 instructions:  100000001 cycles:  107084527 (Simulation time: 0 hr 2 min 21 sec) 

Heartbeat CPU  0 instructions:  101000000 cycles:  109755159 heartbeat IPC: 0.37444 cumulative IPC: 0.37444 (Simulation time: 0 hr 2 min 23 sec) 
Heartbeat CPU  0 instructions:  102000000 cycles:  112405684 heartbeat IPC: 0.37728 cumulative IPC: 0.37586 (Simulation time: 0 hr 2 min 25 sec) 
Heartbeat CPU  0 instructions:  103000000 cycles:  115058971 heartbeat IPC: 0.37689 cumulative IPC: 0.37620 (Simulation time: 0 hr 2 min 27 sec) 
Heartbeat CPU  0 instructions:  104000000 cycles:  117624693 heartbeat IPC: 0.38975 cumulative IPC: 0.37950 (Simulation time: 0 hr 2 min 30 sec) 
Heartbeat CPU  0 instructions:  105000003 cycles:  120356774 heartbeat IPC: 0.36602 cumulative IPC: 0.37673 (Simulation time: 0 hr 2 min 32 sec) 
Heartbeat CPU  0 instructions:  106000001 cycles:  123048377 heartbeat IPC: 0.37153 cumulative IPC: 0.37585 (Simulation time: 0 hr 2 min 35 sec) 
Heartbeat CPU  0 instructions:  107000003 cycles:  125743527 heartbeat IPC: 0.37104 cumulative IPC: 0.37515 (Simulation time: 0 hr 2 min 37 sec) 
Heartbeat CPU  0 instructions:  108000000 cycles:  128561006 heartbeat IPC: 0.35493 cumulative IPC: 0.37250 (Simulation time: 0 hr 2 min 40 sec) 
Heartbeat CPU  0 instructions:  109000000 cycles:  131353739 heartbeat IPC: 0.35807 cumulative IPC: 0.37084 (Simulation time: 0 hr 2 min 42 sec) 
Heartbeat CPU  0 instructions:  110000002 cycles:  134028084 heartbeat IPC: 0.37392 cumulative IPC: 0.37115 (Simulation time: 0 hr 2 min 45 sec) 
Heartbeat CPU  0 instructions:  111000002 cycles:  136604672 heartbeat IPC: 0.38811 cumulative IPC: 0.37263 (Simulation time: 0 hr 2 min 47 sec) 
Heartbeat CPU  0 instructions:  112000000 cycles:  139354540 heartbeat IPC: 0.36365 cumulative IPC: 0.37186 (Simulation time: 0 hr 2 min 49 sec) 
Heartbeat CPU  0 instructions:  113000001 cycles:  142207089 heartbeat IPC: 0.35056 cumulative IPC: 0.37013 (Simulation time: 0 hr 2 min 51 sec) 
Heartbeat CPU  0 instructions:  114000000 cycles:  145028343 heartbeat IPC: 0.35445 cumulative IPC: 0.36897 (Simulation time: 0 hr 2 min 53 sec) 
Heartbeat CPU  0 instructions:  115000000 cycles:  147733164 heartbeat IPC: 0.36971 cumulative IPC: 0.36902 (Simulation time: 0 hr 2 min 55 sec) 
Heartbeat CPU  0 instructions:  116000000 cycles:  150495272 heartbeat IPC: 0.36204 cumulative IPC: 0.36857 (Simulation time: 0 hr 2 min 57 sec) 
Heartbeat CPU  0 instructions:  117000002 cycles:  153219515 heartbeat IPC: 0.36708 cumulative IPC: 0.36848 (Simulation time: 0 hr 2 min 59 sec) 
Heartbeat CPU  0 instructions:  118000000 cycles:  155963162 heartbeat IPC: 0.36448 cumulative IPC: 0.36826 (Simulation time: 0 hr 3 min 1 sec) 
Heartbeat CPU  0 instructions:  119000000 cycles:  158717295 heartbeat IPC: 0.36309 cumulative IPC: 0.36798 (Simulation time: 0 hr 3 min 2 sec) 
Heartbeat CPU  0 instructions:  120000000 cycles:  161547358 heartbeat IPC: 0.35335 cumulative IPC: 0.36722 (Simulation time: 0 hr 3 min 4 sec) 
Heartbeat CPU  0 instructions:  121000000 cycles:  164256092 heartbeat IPC: 0.36918 cumulative IPC: 0.36732 (Simulation time: 0 hr 3 min 6 sec) 
Heartbeat CPU  0 instructions:  122000001 cycles:  167002055 heartbeat IPC: 0.36417 cumulative IPC: 0.36717 (Simulation time: 0 hr 3 min 8 sec) 
Heartbeat CPU  0 instructions:  123000001 cycles:  169688963 heartbeat IPC: 0.37218 cumulative IPC: 0.36739 (Simulation time: 0 hr 3 min 10 sec) 
Heartbeat CPU  0 instructions:  124000000 cycles:  172325367 heartbeat IPC: 0.37930 cumulative IPC: 0.36787 (Simulation time: 0 hr 3 min 12 sec) 
Heartbeat CPU  0 instructions:  125000003 cycles:  174953510 heartbeat IPC: 0.38050 cumulative IPC: 0.36836 (Simulation time: 0 hr 3 min 14 sec) 
Heartbeat CPU  0 instructions:  126000000 cycles:  177604830 heartbeat IPC: 0.37717 cumulative IPC: 0.36869 (Simulation time: 0 hr 3 min 16 sec) 
Heartbeat CPU  0 instructions:  127000001 cycles:  180463484 heartbeat IPC: 0.34982 cumulative IPC: 0.36795 (Simulation time: 0 hr 3 min 17 sec) 
Heartbeat CPU  0 instructions:  128000000 cycles:  183168063 heartbeat IPC: 0.36974 cumulative IPC: 0.36802 (Simulation time: 0 hr 3 min 19 sec) 
Heartbeat CPU  0 instructions:  129000001 cycles:  186009193 heartbeat IPC: 0.35197 cumulative IPC: 0.36744 (Simulation time: 0 hr 3 min 21 sec) 
Heartbeat CPU  0 instructions:  130000000 cycles:  188854970 heartbeat IPC: 0.35140 cumulative IPC: 0.36688 (Simulation time: 0 hr 3 min 23 sec) 
Heartbeat CPU  0 instructions:  131000000 cycles:  191590582 heartbeat IPC: 0.36555 cumulative IPC: 0.36684 (Simulation time: 0 hr 3 min 25 sec) 
Heartbeat CPU  0 instructions:  132000000 cycles:  194338025 heartbeat IPC: 0.36397 cumulative IPC: 0.36675 (Simulation time: 0 hr 3 min 27 sec) 
Heartbeat CPU  0 instructions:  133000001 cycles:  197040438 heartbeat IPC: 0.37004 cumulative IPC: 0.36685 (Simulation time: 0 hr 3 min 29 sec) 
Heartbeat CPU  0 instructions:  134000000 cycles:  199788992 heartbeat IPC: 0.36383 cumulative IPC: 0.36676 (Simulation time: 0 hr 3 min 31 sec) 
Heartbeat CPU  0 instructions:  135000000 cycles:  202569144 heartbeat IPC: 0.35969 cumulative IPC: 0.36655 (Simulation time: 0 hr 3 min 33 sec) 
Heartbeat CPU  0 instructions:  136000000 cycles:  205340322 heartbeat IPC: 0.36086 cumulative IPC: 0.36639 (Simulation time: 0 hr 3 min 34 sec) 
Heartbeat CPU  0 instructions:  137000000 cycles:  208061415 heartbeat IPC: 0.36750 cumulative IPC: 0.36642 (Simulation time: 0 hr 3 min 36 sec) 
Heartbeat CPU  0 instructions:  138000000 cycles:  210666662 heartbeat IPC: 0.38384 cumulative IPC: 0.36686 (Simulation time: 0 hr 3 min 38 sec) 
Heartbeat CPU  0 instructions:  139000002 cycles:  213334050 heartbeat IPC: 0.37490 cumulative IPC: 0.36706 (Simulation time: 0 hr 3 min 40 sec) 
Heartbeat CPU  0 instructions:  140000000 cycles:  216074559 heartbeat IPC: 0.36489 cumulative IPC: 0.36701 (Simulation time: 0 hr 3 min 42 sec) 
Heartbeat CPU  0 instructions:  141000003 cycles:  218807108 heartbeat IPC: 0.36596 cumulative IPC: 0.36698 (Simulation time: 0 hr 3 min 44 sec) 
Heartbeat CPU  0 instructions:  142000000 cycles:  221475928 heartbeat IPC: 0.37470 cumulative IPC: 0.36716 (Simulation time: 0 hr 3 min 46 sec) 
Heartbeat CPU  0 instructions:  143000001 cycles:  224122780 heartbeat IPC: 0.37781 cumulative IPC: 0.36740 (Simulation time: 0 hr 3 min 48 sec) 
Heartbeat CPU  0 instructions:  144000000 cycles:  225701784 heartbeat IPC: 0.63331 cumulative IPC: 0.37094 (Simulation time: 0 hr 3 min 50 sec) 
Heartbeat CPU  0 instructions:  145000002 cycles:  226650264 heartbeat IPC: 1.05432 cumulative IPC: 0.37636 (Simulation time: 0 hr 3 min 52 sec) 
Heartbeat CPU  0 instructions:  146000000 cycles:  227697325 heartbeat IPC: 0.95505 cumulative IPC: 0.38139 (Simulation time: 0 hr 3 min 54 sec) 
Heartbeat CPU  0 instructions:  147000001 cycles:  229028937 heartbeat IPC: 0.75097 cumulative IPC: 0.38542 (Simulation time: 0 hr 3 min 57 sec) 
Heartbeat CPU  0 instructions:  148000000 cycles:  230610244 heartbeat IPC: 0.63239 cumulative IPC: 0.38858 (Simulation time: 0 hr 3 min 59 sec) 
Heartbeat CPU  0 instructions:  149000001 cycles:  233587674 heartbeat IPC: 0.33586 cumulative IPC: 0.38734 (Simulation time: 0 hr 4 min 3 sec) 
Heartbeat CPU  0 instructions:  150000001 cycles:  236908347 heartbeat IPC: 0.30114 cumulative IPC: 0.38514 (Simulation time: 0 hr 4 min 6 sec) 
Heartbeat CPU  0 instructions:  151000001 cycles:  240438395 heartbeat IPC: 0.28328 cumulative IPC: 0.38244 (Simulation time: 0 hr 4 min 10 sec) 
Heartbeat CPU  0 instructions:  152000000 cycles:  244667779 heartbeat IPC: 0.23644 cumulative IPC: 0.37795 (Simulation time: 0 hr 4 min 14 sec) 
Heartbeat CPU  0 instructions:  153000001 cycles:  249736172 heartbeat IPC: 0.19730 cumulative IPC: 0.37153 (Simulation time: 0 hr 4 min 21 sec) 
Heartbeat CPU  0 instructions:  154000003 cycles:  255025574 heartbeat IPC: 0.18906 cumulative IPC: 0.36501 (Simulation time: 0 hr 4 min 27 sec) 
Heartbeat CPU  0 instructions:  155000003 cycles:  257425135 heartbeat IPC: 0.41674 cumulative IPC: 0.36584 (Simulation time: 0 hr 4 min 30 sec) 
Heartbeat CPU  0 instructions:  156000000 cycles:  259165097 heartbeat IPC: 0.57472 cumulative IPC: 0.36823 (Simulation time: 0 hr 4 min 34 sec) 
Heartbeat CPU  0 instructions:  157000001 cycles:  260909143 heartbeat IPC: 0.57338 cumulative IPC: 0.37055 (Simulation time: 0 hr 4 min 37 sec) 
Heartbeat CPU  0 instructions:  158000002 cycles:  262752220 heartbeat IPC: 0.54257 cumulative IPC: 0.37259 (Simulation time: 0 hr 4 min 40 sec) 
Heartbeat CPU  0 instructions:  159000002 cycles:  266298886 heartbeat IPC: 0.28195 cumulative IPC: 0.37057 (Simulation time: 0 hr 4 min 45 sec) 
Heartbeat CPU  0 instructions:  160000000 cycles:  269813212 heartbeat IPC: 0.28455 cumulative IPC: 0.36871 (Simulation time: 0 hr 4 min 49 sec) 
Heartbeat CPU  0 instructions:  161000003 cycles:  273327905 heartbeat IPC: 0.28452 cumulative IPC: 0.36693 (Simulation time: 0 hr 4 min 53 sec) 
Heartbeat CPU  0 instructions:  162000000 cycles:  278116072 heartbeat IPC: 0.20885 cumulative IPC: 0.36251 (Simulation time: 0 hr 4 min 58 sec) 
Heartbeat CPU  0 instructions:  163000002 cycles:  283324630 heartbeat IPC: 0.19199 cumulative IPC: 0.35747 (Simulation time: 0 hr 5 min 4 sec) 
Heartbeat CPU  0 instructions:  164000000 cycles:  287884876 heartbeat IPC: 0.21929 cumulative IPC: 0.35398 (Simulation time: 0 hr 5 min 8 sec) 
Heartbeat CPU  0 instructions:  165000003 cycles:  290624057 heartbeat IPC: 0.36507 cumulative IPC: 0.35415 (Simulation time: 0 hr 5 min 10 sec) 
Heartbeat CPU  0 instructions:  166000000 cycles:  293454034 heartbeat IPC: 0.35336 cumulative IPC: 0.35414 (Simulation time: 0 hr 5 min 12 sec) 
Heartbeat CPU  0 instructions:  167000002 cycles:  296232566 heartbeat IPC: 0.35990 cumulative IPC: 0.35422 (Simulation time: 0 hr 5 min 14 sec) 
Heartbeat CPU  0 instructions:  168000000 cycles:  299001689 heartbeat IPC: 0.36112 cumulative IPC: 0.35432 (Simulation time: 0 hr 5 min 16 sec) 
Heartbeat CPU  0 instructions:  169000000 cycles:  301808564 heartbeat IPC: 0.35627 cumulative IPC: 0.35435 (Simulation time: 0 hr 5 min 18 sec) 
Heartbeat CPU  0 instructions:  170000003 cycles:  304590644 heartbeat IPC: 0.35944 cumulative IPC: 0.35442 (Simulation time: 0 hr 5 min 21 sec) 
Heartbeat CPU  0 instructions:  171000000 cycles:  307295104 heartbeat IPC: 0.36976 cumulative IPC: 0.35463 (Simulation time: 0 hr 5 min 23 sec) 
Heartbeat CPU  0 instructions:  172000000 cycles:  310069057 heartbeat IPC: 0.36050 cumulative IPC: 0.35471 (Simulation time: 0 hr 5 min 25 sec) 
Heartbeat CPU  0 instructions:  173000000 cycles:  312757025 heartbeat IPC: 0.37203 cumulative IPC: 0.35493 (Simulation time: 0 hr 5 min 27 sec) 
Heartbeat CPU  0 instructions:  174000000 cycles:  315531670 heartbeat IPC: 0.36041 cumulative IPC: 0.35501 (Simulation time: 0 hr 5 min 29 sec) 
Heartbeat CPU  0 instructions:  175000001 cycles:  318298228 heartbeat IPC: 0.36146 cumulative IPC: 0.35509 (Simulation time: 0 hr 5 min 31 sec) 
Heartbeat CPU  0 instructions:  176000000 cycles:  321076763 heartbeat IPC: 0.35990 cumulative IPC: 0.35515 (Simulation time: 0 hr 5 min 33 sec) 
Heartbeat CPU  0 instructions:  177000000 cycles:  323852400 heartbeat IPC: 0.36028 cumulative IPC: 0.35522 (Simulation time: 0 hr 5 min 35 sec) 
Heartbeat CPU  0 instructions:  178000001 cycles:  326570014 heartbeat IPC: 0.36797 cumulative IPC: 0.35538 (Simulation time: 0 hr 5 min 37 sec) 
Heartbeat CPU  0 instructions:  179000003 cycles:  329177368 heartbeat IPC: 0.38353 cumulative IPC: 0.35571 (Simulation time: 0 hr 5 min 39 sec) 
Heartbeat CPU  0 instructions:  180000000 cycles:  331919720 heartbeat IPC: 0.36465 cumulative IPC: 0.35582 (Simulation time: 0 hr 5 min 41 sec) 
Heartbeat CPU  0 instructions:  181000000 cycles:  334406030 heartbeat IPC: 0.40220 cumulative IPC: 0.35632 (Simulation time: 0 hr 5 min 43 sec) 
Heartbeat CPU  0 instructions:  182000000 cycles:  337086629 heartbeat IPC: 0.37305 cumulative IPC: 0.35652 (Simulation time: 0 hr 5 min 45 sec) 
Heartbeat CPU  0 instructions:  183000000 cycles:  339661148 heartbeat IPC: 0.38842 cumulative IPC: 0.35687 (Simulation time: 0 hr 5 min 47 sec) 
Heartbeat CPU  0 instructions:  184000000 cycles:  342133990 heartbeat IPC: 0.40439 cumulative IPC: 0.35737 (Simulation time: 0 hr 5 min 49 sec) 
Heartbeat CPU  0 instructions:  185000000 cycles:  344745363 heartbeat IPC: 0.38294 cumulative IPC: 0.35765 (Simulation time: 0 hr 5 min 51 sec) 
Heartbeat CPU  0 instructions:  186000000 cycles:  347445016 heartbeat IPC: 0.37042 cumulative IPC: 0.35780 (Simulation time: 0 hr 5 min 53 sec) 
Heartbeat CPU  0 instructions:  187000000 cycles:  350020011 heartbeat IPC: 0.38835 cumulative IPC: 0.35812 (Simulation time: 0 hr 5 min 55 sec) 
Heartbeat CPU  0 instructions:  188000000 cycles:  352408566 heartbeat IPC: 0.41866 cumulative IPC: 0.35871 (Simulation time: 0 hr 5 min 57 sec) 
Heartbeat CPU  0 instructions:  189000000 cycles:  355043403 heartbeat IPC: 0.37953 cumulative IPC: 0.35893 (Simulation time: 0 hr 5 min 59 sec) 
Heartbeat CPU  0 instructions:  190000000 cycles:  357592706 heartbeat IPC: 0.39226 cumulative IPC: 0.35927 (Simulation time: 0 hr 6 min 1 sec) 
Heartbeat CPU  0 instructions:  191000001 cycles:  360207051 heartbeat IPC: 0.38251 cumulative IPC: 0.35951 (Simulation time: 0 hr 6 min 3 sec) 
Heartbeat CPU  0 instructions:  192000000 cycles:  362793554 heartbeat IPC: 0.38662 cumulative IPC: 0.35978 (Simulation time: 0 hr 6 min 5 sec) 
Heartbeat CPU  0 instructions:  193000001 cycles:  365331195 heartbeat IPC: 0.39407 cumulative IPC: 0.36012 (Simulation time: 0 hr 6 min 7 sec) 
Heartbeat CPU  0 instructions:  194000000 cycles:  367382545 heartbeat IPC: 0.48748 cumulative IPC: 0.36112 (Simulation time: 0 hr 6 min 9 sec) 
Heartbeat CPU  0 instructions:  195000000 cycles:  370015448 heartbeat IPC: 0.37981 cumulative IPC: 0.36131 (Simulation time: 0 hr 6 min 11 sec) 
Heartbeat CPU  0 instructions:  196000000 cycles:  372634804 heartbeat IPC: 0.38177 cumulative IPC: 0.36151 (Simulation time: 0 hr 6 min 13 sec) 
Heartbeat CPU  0 instructions:  197000002 cycles:  375192909 heartbeat IPC: 0.39092 cumulative IPC: 0.36179 (Simulation time: 0 hr 6 min 15 sec) 
Heartbeat CPU  0 instructions:  198000000 cycles:  377710130 heartbeat IPC: 0.39726 cumulative IPC: 0.36212 (Simulation time: 0 hr 6 min 17 sec) 
Heartbeat CPU  0 instructions:  199000000 cycles:  380222881 heartbeat IPC: 0.39797 cumulative IPC: 0.36245 (Simulation time: 0 hr 6 min 19 sec) 
Heartbeat CPU  0 instructions:  200000000 cycles:  382792098 heartbeat IPC: 0.38922 cumulative IPC: 0.36270 (Simulation time: 0 hr 6 min 21 sec) 
Heartbeat CPU  0 instructions:  201000002 cycles:  385464653 heartbeat IPC: 0.37417 cumulative IPC: 0.36281 (Simulation time: 0 hr 6 min 23 sec) 
Heartbeat CPU  0 instructions:  202000001 cycles:  388162942 heartbeat IPC: 0.37060 cumulative IPC: 0.36289 (Simulation time: 0 hr 6 min 25 sec) 
Heartbeat CPU  0 instructions:  203000000 cycles:  390744599 heartbeat IPC: 0.38735 cumulative IPC: 0.36311 (Simulation time: 0 hr 6 min 27 sec) 
Heartbeat CPU  0 instructions:  204000000 cycles:  393272369 heartbeat IPC: 0.39561 cumulative IPC: 0.36340 (Simulation time: 0 hr 6 min 29 sec) 
Heartbeat CPU  0 instructions:  205000002 cycles:  395893190 heartbeat IPC: 0.38156 cumulative IPC: 0.36356 (Simulation time: 0 hr 6 min 31 sec) 
Heartbeat CPU  0 instructions:  206000001 cycles:  398421021 heartbeat IPC: 0.39560 cumulative IPC: 0.36384 (Simulation time: 0 hr 6 min 33 sec) 
Heartbeat CPU  0 instructions:  207000000 cycles:  401004780 heartbeat IPC: 0.38703 cumulative IPC: 0.36404 (Simulation time: 0 hr 6 min 35 sec) 
Heartbeat CPU  0 instructions:  208000000 cycles:  403816204 heartbeat IPC: 0.35569 cumulative IPC: 0.36397 (Simulation time: 0 hr 6 min 37 sec) 
Heartbeat CPU  0 instructions:  209000003 cycles:  406638129 heartbeat IPC: 0.35437 cumulative IPC: 0.36387 (Simulation time: 0 hr 6 min 39 sec) 
Heartbeat CPU  0 instructions:  210000000 cycles:  409235768 heartbeat IPC: 0.38496 cumulative IPC: 0.36406 (Simulation time: 0 hr 6 min 41 sec) 
Heartbeat CPU  0 instructions:  211000000 cycles:  412100958 heartbeat IPC: 0.34902 cumulative IPC: 0.36391 (Simulation time: 0 hr 6 min 43 sec) 
Heartbeat CPU  0 instructions:  212000000 cycles:  414797365 heartbeat IPC: 0.37086 cumulative IPC: 0.36398 (Simulation time: 0 hr 6 min 45 sec) 
Heartbeat CPU  0 instructions:  213000002 cycles:  417538526 heartbeat IPC: 0.36481 cumulative IPC: 0.36398 (Simulation time: 0 hr 6 min 47 sec) 
Heartbeat CPU  0 instructions:  214000000 cycles:  420341104 heartbeat IPC: 0.35681 cumulative IPC: 0.36392 (Simulation time: 0 hr 6 min 49 sec) 
Heartbeat CPU  0 instructions:  215000001 cycles:  423127821 heartbeat IPC: 0.35885 cumulative IPC: 0.36387 (Simulation time: 0 hr 6 min 51 sec) 
Heartbeat CPU  0 instructions:  216000000 cycles:  425888698 heartbeat IPC: 0.36220 cumulative IPC: 0.36386 (Simulation time: 0 hr 6 min 53 sec) 
Heartbeat CPU  0 instructions:  217000000 cycles:  428664438 heartbeat IPC: 0.36026 cumulative IPC: 0.36383 (Simulation time: 0 hr 6 min 55 sec) 
Heartbeat CPU  0 instructions:  218000002 cycles:  431448545 heartbeat IPC: 0.35918 cumulative IPC: 0.36379 (Simulation time: 0 hr 6 min 57 sec) 
Heartbeat CPU  0 instructions:  219000000 cycles:  434202061 heartbeat IPC: 0.36317 cumulative IPC: 0.36378 (Simulation time: 0 hr 6 min 59 sec) 
Heartbeat CPU  0 instructions:  220000000 cycles:  436939428 heartbeat IPC: 0.36531 cumulative IPC: 0.36380 (Simulation time: 0 hr 7 min 1 sec) 
Heartbeat CPU  0 instructions:  221000003 cycles:  439740091 heartbeat IPC: 0.35706 cumulative IPC: 0.36374 (Simulation time: 0 hr 7 min 3 sec) 
Heartbeat CPU  0 instructions:  222000003 cycles:  442515810 heartbeat IPC: 0.36027 cumulative IPC: 0.36371 (Simulation time: 0 hr 7 min 5 sec) 
Heartbeat CPU  0 instructions:  223000000 cycles:  445232696 heartbeat IPC: 0.36807 cumulative IPC: 0.36375 (Simulation time: 0 hr 7 min 7 sec) 
Heartbeat CPU  0 instructions:  224000000 cycles:  447936788 heartbeat IPC: 0.36981 cumulative IPC: 0.36379 (Simulation time: 0 hr 7 min 9 sec) 
Heartbeat CPU  0 instructions:  225000000 cycles:  450567057 heartbeat IPC: 0.38019 cumulative IPC: 0.36392 (Simulation time: 0 hr 7 min 11 sec) 
Heartbeat CPU  0 instructions:  226000002 cycles:  453304649 heartbeat IPC: 0.36529 cumulative IPC: 0.36393 (Simulation time: 0 hr 7 min 13 sec) 
Heartbeat CPU  0 instructions:  227000000 cycles:  456046577 heartbeat IPC: 0.36471 cumulative IPC: 0.36394 (Simulation time: 0 hr 7 min 15 sec) 
Heartbeat CPU  0 instructions:  228000000 cycles:  458736592 heartbeat IPC: 0.37175 cumulative IPC: 0.36400 (Simulation time: 0 hr 7 min 17 sec) 
Heartbeat CPU  0 instructions:  229000003 cycles:  461533988 heartbeat IPC: 0.35748 cumulative IPC: 0.36394 (Simulation time: 0 hr 7 min 19 sec) 
Heartbeat CPU  0 instructions:  230000003 cycles:  464322442 heartbeat IPC: 0.35862 cumulative IPC: 0.36390 (Simulation time: 0 hr 7 min 21 sec) 
Heartbeat CPU  0 instructions:  231000000 cycles:  467101255 heartbeat IPC: 0.35986 cumulative IPC: 0.36387 (Simulation time: 0 hr 7 min 23 sec) 
Heartbeat CPU  0 instructions:  232000000 cycles:  469809730 heartbeat IPC: 0.36921 cumulative IPC: 0.36391 (Simulation time: 0 hr 7 min 25 sec) 
Heartbeat CPU  0 instructions:  233000001 cycles:  472539615 heartbeat IPC: 0.36632 cumulative IPC: 0.36393 (Simulation time: 0 hr 7 min 27 sec) 
Heartbeat CPU  0 instructions:  234000000 cycles:  475267696 heartbeat IPC: 0.36656 cumulative IPC: 0.36395 (Simulation time: 0 hr 7 min 29 sec) 
Heartbeat CPU  0 instructions:  235000000 cycles:  477972993 heartbeat IPC: 0.36965 cumulative IPC: 0.36399 (Simulation time: 0 hr 7 min 32 sec) 
Heartbeat CPU  0 instructions:  236000000 cycles:  480447058 heartbeat IPC: 0.40419 cumulative IPC: 0.36426 (Simulation time: 0 hr 7 min 33 sec) 
Heartbeat CPU  0 instructions:  237000001 cycles:  482784823 heartbeat IPC: 0.42776 cumulative IPC: 0.36465 (Simulation time: 0 hr 7 min 35 sec) 
Heartbeat CPU  0 instructions:  238000000 cycles:  485339982 heartbeat IPC: 0.39136 cumulative IPC: 0.36483 (Simulation time: 0 hr 7 min 37 sec) 
Heartbeat CPU  0 instructions:  239000000 cycles:  488095899 heartbeat IPC: 0.36286 cumulative IPC: 0.36482 (Simulation time: 0 hr 7 min 39 sec) 
Heartbeat CPU  0 instructions:  240000000 cycles:  490764328 heartbeat IPC: 0.37475 cumulative IPC: 0.36489 (Simulation time: 0 hr 7 min 41 sec) 
Heartbeat CPU  0 instructions:  241000000 cycles:  493459451 heartbeat IPC: 0.37104 cumulative IPC: 0.36493 (Simulation time: 0 hr 7 min 43 sec) 
Heartbeat CPU  0 instructions:  242000003 cycles:  496283331 heartbeat IPC: 0.35412 cumulative IPC: 0.36485 (Simulation time: 0 hr 7 min 45 sec) 
Heartbeat CPU  0 instructions:  243000001 cycles:  499052886 heartbeat IPC: 0.36107 cumulative IPC: 0.36483 (Simulation time: 0 hr 7 min 47 sec) 
Heartbeat CPU  0 instructions:  244000000 cycles:  501660726 heartbeat IPC: 0.38346 cumulative IPC: 0.36495 (Simulation time: 0 hr 7 min 49 sec) 
Heartbeat CPU  0 instructions:  245000000 cycles:  504205754 heartbeat IPC: 0.39292 cumulative IPC: 0.36513 (Simulation time: 0 hr 7 min 51 sec) 
Heartbeat CPU  0 instructions:  246000001 cycles:  506940291 heartbeat IPC: 0.36569 cumulative IPC: 0.36513 (Simulation time: 0 hr 7 min 53 sec) 
Heartbeat CPU  0 instructions:  247000002 cycles:  509584223 heartbeat IPC: 0.37822 cumulative IPC: 0.36522 (Simulation time: 0 hr 7 min 55 sec) 
Heartbeat CPU  0 instructions:  248000000 cycles:  512171400 heartbeat IPC: 0.38652 cumulative IPC: 0.36535 (Simulation time: 0 hr 7 min 57 sec) 
Heartbeat CPU  0 instructions:  249000003 cycles:  514721903 heartbeat IPC: 0.39208 cumulative IPC: 0.36552 (Simulation time: 0 hr 7 min 59 sec) 
Heartbeat CPU  0 instructions:  250000000 cycles:  517119290 heartbeat IPC: 0.41712 cumulative IPC: 0.36582 (Simulation time: 0 hr 8 min 1 sec) 
Heartbeat CPU  0 instructions:  251000002 cycles:  519833142 heartbeat IPC: 0.36848 cumulative IPC: 0.36584 (Simulation time: 0 hr 8 min 2 sec) 
Heartbeat CPU  0 instructions:  252000000 cycles:  522538682 heartbeat IPC: 0.36961 cumulative IPC: 0.36586 (Simulation time: 0 hr 8 min 4 sec) 
Heartbeat CPU  0 instructions:  253000000 cycles:  525356058 heartbeat IPC: 0.35494 cumulative IPC: 0.36579 (Simulation time: 0 hr 8 min 6 sec) 
Heartbeat CPU  0 instructions:  254000002 cycles:  528077120 heartbeat IPC: 0.36750 cumulative IPC: 0.36580 (Simulation time: 0 hr 8 min 8 sec) 
Heartbeat CPU  0 instructions:  255000001 cycles:  530807214 heartbeat IPC: 0.36629 cumulative IPC: 0.36581 (Simulation time: 0 hr 8 min 10 sec) 
Heartbeat CPU  0 instructions:  256000000 cycles:  533533917 heartbeat IPC: 0.36674 cumulative IPC: 0.36581 (Simulation time: 0 hr 8 min 12 sec) 
Heartbeat CPU  0 instructions:  257000000 cycles:  536251548 heartbeat IPC: 0.36797 cumulative IPC: 0.36582 (Simulation time: 0 hr 8 min 14 sec) 
Heartbeat CPU  0 instructions:  258000000 cycles:  538955986 heartbeat IPC: 0.36976 cumulative IPC: 0.36585 (Simulation time: 0 hr 8 min 16 sec) 
Heartbeat CPU  0 instructions:  259000000 cycles:  541440251 heartbeat IPC: 0.40253 cumulative IPC: 0.36606 (Simulation time: 0 hr 8 min 18 sec) 
Heartbeat CPU  0 instructions:  260000000 cycles:  544107133 heartbeat IPC: 0.37497 cumulative IPC: 0.36611 (Simulation time: 0 hr 8 min 20 sec) 
Heartbeat CPU  0 instructions:  261000000 cycles:  546812068 heartbeat IPC: 0.36969 cumulative IPC: 0.36614 (Simulation time: 0 hr 8 min 22 sec) 
Heartbeat CPU  0 instructions:  262000000 cycles:  549535276 heartbeat IPC: 0.36721 cumulative IPC: 0.36614 (Simulation time: 0 hr 8 min 23 sec) 
Heartbeat CPU  0 instructions:  263000001 cycles:  552225232 heartbeat IPC: 0.37175 cumulative IPC: 0.36618 (Simulation time: 0 hr 8 min 25 sec) 
Heartbeat CPU  0 instructions:  264000000 cycles:  554855465 heartbeat IPC: 0.38019 cumulative IPC: 0.36626 (Simulation time: 0 hr 8 min 27 sec) 
Heartbeat CPU  0 instructions:  265000002 cycles:  557490412 heartbeat IPC: 0.37952 cumulative IPC: 0.36634 (Simulation time: 0 hr 8 min 29 sec) 
Heartbeat CPU  0 instructions:  266000002 cycles:  560138135 heartbeat IPC: 0.37768 cumulative IPC: 0.36640 (Simulation time: 0 hr 8 min 31 sec) 
Heartbeat CPU  0 instructions:  267000003 cycles:  562860225 heartbeat IPC: 0.36737 cumulative IPC: 0.36641 (Simulation time: 0 hr 8 min 33 sec) 
Heartbeat CPU  0 instructions:  268000000 cycles:  565596386 heartbeat IPC: 0.36547 cumulative IPC: 0.36640 (Simulation time: 0 hr 8 min 35 sec) 
Heartbeat CPU  0 instructions:  269000001 cycles:  568324245 heartbeat IPC: 0.36659 cumulative IPC: 0.36640 (Simulation time: 0 hr 8 min 37 sec) 
Heartbeat CPU  0 instructions:  270000001 cycles:  571024772 heartbeat IPC: 0.37030 cumulative IPC: 0.36643 (Simulation time: 0 hr 8 min 38 sec) 
Heartbeat CPU  0 instructions:  271000003 cycles:  573715044 heartbeat IPC: 0.37171 cumulative IPC: 0.36646 (Simulation time: 0 hr 8 min 40 sec) 
Heartbeat CPU  0 instructions:  272000000 cycles:  576438245 heartbeat IPC: 0.36721 cumulative IPC: 0.36646 (Simulation time: 0 hr 8 min 42 sec) 
Heartbeat CPU  0 instructions:  273000001 cycles:  579122869 heartbeat IPC: 0.37249 cumulative IPC: 0.36650 (Simulation time: 0 hr 8 min 44 sec) 
Heartbeat CPU  0 instructions:  274000003 cycles:  581902226 heartbeat IPC: 0.35980 cumulative IPC: 0.36646 (Simulation time: 0 hr 8 min 46 sec) 
Heartbeat CPU  0 instructions:  275000002 cycles:  584624096 heartbeat IPC: 0.36739 cumulative IPC: 0.36646 (Simulation time: 0 hr 8 min 48 sec) 
Heartbeat CPU  0 instructions:  276000000 cycles:  587283936 heartbeat IPC: 0.37596 cumulative IPC: 0.36651 (Simulation time: 0 hr 8 min 50 sec) 
Heartbeat CPU  0 instructions:  277000000 cycles:  589848619 heartbeat IPC: 0.38991 cumulative IPC: 0.36664 (Simulation time: 0 hr 8 min 52 sec) 
Heartbeat CPU  0 instructions:  278000001 cycles:  592339480 heartbeat IPC: 0.40147 cumulative IPC: 0.36682 (Simulation time: 0 hr 8 min 54 sec) 
Heartbeat CPU  0 instructions:  279000002 cycles:  594909858 heartbeat IPC: 0.38905 cumulative IPC: 0.36693 (Simulation time: 0 hr 8 min 55 sec) 
Heartbeat CPU  0 instructions:  280000000 cycles:  597610857 heartbeat IPC: 0.37023 cumulative IPC: 0.36695 (Simulation time: 0 hr 8 min 57 sec) 
Heartbeat CPU  0 instructions:  281000002 cycles:  600331698 heartbeat IPC: 0.36753 cumulative IPC: 0.36696 (Simulation time: 0 hr 8 min 59 sec) 
Heartbeat CPU  0 instructions:  282000003 cycles:  602968013 heartbeat IPC: 0.37932 cumulative IPC: 0.36702 (Simulation time: 0 hr 9 min 1 sec) 
Heartbeat CPU  0 instructions:  283000001 cycles:  605429064 heartbeat IPC: 0.40633 cumulative IPC: 0.36722 (Simulation time: 0 hr 9 min 3 sec) 
Heartbeat CPU  0 instructions:  284000000 cycles:  608037684 heartbeat IPC: 0.38334 cumulative IPC: 0.36730 (Simulation time: 0 hr 9 min 5 sec) 
Heartbeat CPU  0 instructions:  285000001 cycles:  610709320 heartbeat IPC: 0.37430 cumulative IPC: 0.36734 (Simulation time: 0 hr 9 min 7 sec) 
Heartbeat CPU  0 instructions:  286000000 cycles:  613193553 heartbeat IPC: 0.40254 cumulative IPC: 0.36751 (Simulation time: 0 hr 9 min 9 sec) 
Heartbeat CPU  0 instructions:  287000002 cycles:  615757103 heartbeat IPC: 0.39008 cumulative IPC: 0.36762 (Simulation time: 0 hr 9 min 10 sec) 
Heartbeat CPU  0 instructions:  288000000 cycles:  618466366 heartbeat IPC: 0.36910 cumulative IPC: 0.36763 (Simulation time: 0 hr 9 min 12 sec) 
Heartbeat CPU  0 instructions:  289000000 cycles:  621217158 heartbeat IPC: 0.36353 cumulative IPC: 0.36761 (Simulation time: 0 hr 9 min 14 sec) 
Heartbeat CPU  0 instructions:  290000002 cycles:  623816577 heartbeat IPC: 0.38470 cumulative IPC: 0.36770 (Simulation time: 0 hr 9 min 16 sec) 
Heartbeat CPU  0 instructions:  291000000 cycles:  626704204 heartbeat IPC: 0.34630 cumulative IPC: 0.36758 (Simulation time: 0 hr 9 min 18 sec) 
Heartbeat CPU  0 instructions:  292000000 cycles:  629515225 heartbeat IPC: 0.35574 cumulative IPC: 0.36751 (Simulation time: 0 hr 9 min 20 sec) 
Heartbeat CPU  0 instructions:  293000000 cycles:  632296907 heartbeat IPC: 0.35949 cumulative IPC: 0.36747 (Simulation time: 0 hr 9 min 22 sec) 
Heartbeat CPU  0 instructions:  294000002 cycles:  635044799 heartbeat IPC: 0.36392 cumulative IPC: 0.36745 (Simulation time: 0 hr 9 min 24 sec) 
Heartbeat CPU  0 instructions:  295000001 cycles:  637742380 heartbeat IPC: 0.37070 cumulative IPC: 0.36747 (Simulation time: 0 hr 9 min 26 sec) 
Heartbeat CPU  0 instructions:  296000000 cycles:  640501050 heartbeat IPC: 0.36249 cumulative IPC: 0.36744 (Simulation time: 0 hr 9 min 28 sec) 
Heartbeat CPU  0 instructions:  297000000 cycles:  643226594 heartbeat IPC: 0.36690 cumulative IPC: 0.36744 (Simulation time: 0 hr 9 min 29 sec) 
Heartbeat CPU  0 instructions:  298000000 cycles:  645907617 heartbeat IPC: 0.37299 cumulative IPC: 0.36747 (Simulation time: 0 hr 9 min 31 sec) 
Heartbeat CPU  0 instructions:  299000000 cycles:  648700276 heartbeat IPC: 0.35808 cumulative IPC: 0.36742 (Simulation time: 0 hr 9 min 33 sec) 
Heartbeat CPU  0 instructions:  300000000 cycles:  651392068 heartbeat IPC: 0.37150 cumulative IPC: 0.36744 (Simulation time: 0 hr 9 min 35 sec) 
Heartbeat CPU  0 instructions:  301000000 cycles:  654160189 heartbeat IPC: 0.36126 cumulative IPC: 0.36741 (Simulation time: 0 hr 9 min 37 sec) 
Heartbeat CPU  0 instructions:  302000000 cycles:  656900697 heartbeat IPC: 0.36490 cumulative IPC: 0.36740 (Simulation time: 0 hr 9 min 39 sec) 
Heartbeat CPU  0 instructions:  303000000 cycles:  659771795 heartbeat IPC: 0.34830 cumulative IPC: 0.36730 (Simulation time: 0 hr 9 min 41 sec) 
Heartbeat CPU  0 instructions:  304000000 cycles:  662486026 heartbeat IPC: 0.36843 cumulative IPC: 0.36730 (Simulation time: 0 hr 9 min 43 sec) 
Heartbeat CPU  0 instructions:  305000002 cycles:  665107077 heartbeat IPC: 0.38153 cumulative IPC: 0.36737 (Simulation time: 0 hr 9 min 45 sec) 
Heartbeat CPU  0 instructions:  306000000 cycles:  667995625 heartbeat IPC: 0.34619 cumulative IPC: 0.36726 (Simulation time: 0 hr 9 min 47 sec) 
Heartbeat CPU  0 instructions:  307000000 cycles:  670717132 heartbeat IPC: 0.36744 cumulative IPC: 0.36726 (Simulation time: 0 hr 9 min 48 sec) 
Heartbeat CPU  0 instructions:  308000000 cycles:  673431852 heartbeat IPC: 0.36836 cumulative IPC: 0.36727 (Simulation time: 0 hr 9 min 50 sec) 
Heartbeat CPU  0 instructions:  309000000 cycles:  676110187 heartbeat IPC: 0.37337 cumulative IPC: 0.36729 (Simulation time: 0 hr 9 min 52 sec) 
Heartbeat CPU  0 instructions:  310000000 cycles:  678535497 heartbeat IPC: 0.41232 cumulative IPC: 0.36749 (Simulation time: 0 hr 9 min 54 sec) 
Heartbeat CPU  0 instructions:  311000000 cycles:  680421560 heartbeat IPC: 0.53021 cumulative IPC: 0.36802 (Simulation time: 0 hr 9 min 56 sec) 
Heartbeat CPU  0 instructions:  312000000 cycles:  683055079 heartbeat IPC: 0.37972 cumulative IPC: 0.36807 (Simulation time: 0 hr 9 min 57 sec) 
Heartbeat CPU  0 instructions:  313000002 cycles:  685797214 heartbeat IPC: 0.36468 cumulative IPC: 0.36806 (Simulation time: 0 hr 9 min 59 sec) 
Heartbeat CPU  0 instructions:  314000002 cycles:  688524167 heartbeat IPC: 0.36671 cumulative IPC: 0.36805 (Simulation time: 0 hr 10 min 1 sec) 
Heartbeat CPU  0 instructions:  315000001 cycles:  691282763 heartbeat IPC: 0.36250 cumulative IPC: 0.36803 (Simulation time: 0 hr 10 min 3 sec) 
Heartbeat CPU  0 instructions:  316000000 cycles:  694085179 heartbeat IPC: 0.35683 cumulative IPC: 0.36797 (Simulation time: 0 hr 10 min 5 sec) 
Heartbeat CPU  0 instructions:  317000003 cycles:  696833418 heartbeat IPC: 0.36387 cumulative IPC: 0.36795 (Simulation time: 0 hr 10 min 7 sec) 
Heartbeat CPU  0 instructions:  318000000 cycles:  699562209 heartbeat IPC: 0.36646 cumulative IPC: 0.36795 (Simulation time: 0 hr 10 min 9 sec) 
Heartbeat CPU  0 instructions:  319000000 cycles:  702228875 heartbeat IPC: 0.37500 cumulative IPC: 0.36798 (Simulation time: 0 hr 10 min 11 sec) 
Heartbeat CPU  0 instructions:  320000000 cycles:  704902757 heartbeat IPC: 0.37399 cumulative IPC: 0.36800 (Simulation time: 0 hr 10 min 13 sec) 
Heartbeat CPU  0 instructions:  321000003 cycles:  707625593 heartbeat IPC: 0.36727 cumulative IPC: 0.36800 (Simulation time: 0 hr 10 min 14 sec) 
Heartbeat CPU  0 instructions:  322000002 cycles:  710245492 heartbeat IPC: 0.38169 cumulative IPC: 0.36806 (Simulation time: 0 hr 10 min 16 sec) 
Heartbeat CPU  0 instructions:  323000000 cycles:  712870778 heartbeat IPC: 0.38091 cumulative IPC: 0.36812 (Simulation time: 0 hr 10 min 18 sec) 
Heartbeat CPU  0 instructions:  324000000 cycles:  714940326 heartbeat IPC: 0.48320 cumulative IPC: 0.36851 (Simulation time: 0 hr 10 min 20 sec) 
Heartbeat CPU  0 instructions:  325000001 cycles:  717341787 heartbeat IPC: 0.41641 cumulative IPC: 0.36870 (Simulation time: 0 hr 10 min 22 sec) 
Heartbeat CPU  0 instructions:  326000000 cycles:  719806962 heartbeat IPC: 0.40565 cumulative IPC: 0.36885 (Simulation time: 0 hr 10 min 23 sec) 
Heartbeat CPU  0 instructions:  327000000 cycles:  722232002 heartbeat IPC: 0.41236 cumulative IPC: 0.36902 (Simulation time: 0 hr 10 min 25 sec) 
Heartbeat CPU  0 instructions:  328000000 cycles:  724912240 heartbeat IPC: 0.37310 cumulative IPC: 0.36903 (Simulation time: 0 hr 10 min 27 sec) 
Heartbeat CPU  0 instructions:  329000003 cycles:  727410729 heartbeat IPC: 0.40024 cumulative IPC: 0.36916 (Simulation time: 0 hr 10 min 29 sec) 
Heartbeat CPU  0 instructions:  330000001 cycles:  729756952 heartbeat IPC: 0.42622 cumulative IPC: 0.36938 (Simulation time: 0 hr 10 min 31 sec) 
Heartbeat CPU  0 instructions:  331000001 cycles:  732126622 heartbeat IPC: 0.42200 cumulative IPC: 0.36958 (Simulation time: 0 hr 10 min 33 sec) 
Heartbeat CPU  0 instructions:  332000000 cycles:  734718488 heartbeat IPC: 0.38582 cumulative IPC: 0.36964 (Simulation time: 0 hr 10 min 35 sec) 
Heartbeat CPU  0 instructions:  333000000 cycles:  737296360 heartbeat IPC: 0.38792 cumulative IPC: 0.36972 (Simulation time: 0 hr 10 min 36 sec) 
Heartbeat CPU  0 instructions:  334000001 cycles:  739839018 heartbeat IPC: 0.39329 cumulative IPC: 0.36981 (Simulation time: 0 hr 10 min 38 sec) 
Heartbeat CPU  0 instructions:  335000000 cycles:  742440232 heartbeat IPC: 0.38444 cumulative IPC: 0.36987 (Simulation time: 0 hr 10 min 40 sec) 
Heartbeat CPU  0 instructions:  336000000 cycles:  744840131 heartbeat IPC: 0.41668 cumulative IPC: 0.37005 (Simulation time: 0 hr 10 min 42 sec) 
Heartbeat CPU  0 instructions:  337000000 cycles:  747229335 heartbeat IPC: 0.41855 cumulative IPC: 0.37023 (Simulation time: 0 hr 10 min 44 sec) 
Heartbeat CPU  0 instructions:  338000001 cycles:  749706978 heartbeat IPC: 0.40361 cumulative IPC: 0.37036 (Simulation time: 0 hr 10 min 46 sec) 
Heartbeat CPU  0 instructions:  339000000 cycles:  752175646 heartbeat IPC: 0.40508 cumulative IPC: 0.37049 (Simulation time: 0 hr 10 min 48 sec) 
Heartbeat CPU  0 instructions:  340000000 cycles:  754803571 heartbeat IPC: 0.38053 cumulative IPC: 0.37053 (Simulation time: 0 hr 10 min 49 sec) 
Heartbeat CPU  0 instructions:  341000002 cycles:  757410817 heartbeat IPC: 0.38355 cumulative IPC: 0.37058 (Simulation time: 0 hr 10 min 51 sec) 
Heartbeat CPU  0 instructions:  342000001 cycles:  760167169 heartbeat IPC: 0.36280 cumulative IPC: 0.37055 (Simulation time: 0 hr 10 min 53 sec) 
Heartbeat CPU  0 instructions:  343000003 cycles:  762758440 heartbeat IPC: 0.38591 cumulative IPC: 0.37061 (Simulation time: 0 hr 10 min 55 sec) 
Heartbeat CPU  0 instructions:  344000000 cycles:  765286483 heartbeat IPC: 0.39556 cumulative IPC: 0.37071 (Simulation time: 0 hr 10 min 57 sec) 
Heartbeat CPU  0 instructions:  345000003 cycles:  768077465 heartbeat IPC: 0.35830 cumulative IPC: 0.37065 (Simulation time: 0 hr 10 min 59 sec) 
Heartbeat CPU  0 instructions:  346000001 cycles:  770796685 heartbeat IPC: 0.36775 cumulative IPC: 0.37064 (Simulation time: 0 hr 11 min 1 sec) 
Heartbeat CPU  0 instructions:  347000002 cycles:  773286864 heartbeat IPC: 0.40158 cumulative IPC: 0.37076 (Simulation time: 0 hr 11 min 2 sec) 
Heartbeat CPU  0 instructions:  348000000 cycles:  775655262 heartbeat IPC: 0.42223 cumulative IPC: 0.37094 (Simulation time: 0 hr 11 min 4 sec) 
Heartbeat CPU  0 instructions:  349000000 cycles:  778286397 heartbeat IPC: 0.38006 cumulative IPC: 0.37098 (Simulation time: 0 hr 11 min 6 sec) 
Heartbeat CPU  0 instructions:  350000001 cycles:  780797404 heartbeat IPC: 0.39825 cumulative IPC: 0.37108 (Simulation time: 0 hr 11 min 8 sec) 
Heartbeat CPU  0 instructions:  351000000 cycles:  783592693 heartbeat IPC: 0.35774 cumulative IPC: 0.37102 (Simulation time: 0 hr 11 min 10 sec) 
Heartbeat CPU  0 instructions:  352000000 cycles:  786262596 heartbeat IPC: 0.37455 cumulative IPC: 0.37104 (Simulation time: 0 hr 11 min 12 sec) 
Heartbeat CPU  0 instructions:  353000002 cycles:  788827345 heartbeat IPC: 0.38990 cumulative IPC: 0.37111 (Simulation time: 0 hr 11 min 14 sec) 
Heartbeat CPU  0 instructions:  354000000 cycles:  791477922 heartbeat IPC: 0.37728 cumulative IPC: 0.37113 (Simulation time: 0 hr 11 min 16 sec) 
Heartbeat CPU  0 instructions:  355000003 cycles:  794214222 heartbeat IPC: 0.36546 cumulative IPC: 0.37111 (Simulation time: 0 hr 11 min 18 sec) 
Heartbeat CPU  0 instructions:  356000000 cycles:  796944826 heartbeat IPC: 0.36622 cumulative IPC: 0.37109 (Simulation time: 0 hr 11 min 19 sec) 
Heartbeat CPU  0 instructions:  357000000 cycles:  799615886 heartbeat IPC: 0.37438 cumulative IPC: 0.37110 (Simulation time: 0 hr 11 min 21 sec) 
Heartbeat CPU  0 instructions:  358000000 cycles:  802315377 heartbeat IPC: 0.37044 cumulative IPC: 0.37110 (Simulation time: 0 hr 11 min 23 sec) 
Heartbeat CPU  0 instructions:  359000000 cycles:  804998409 heartbeat IPC: 0.37271 cumulative IPC: 0.37111 (Simulation time: 0 hr 11 min 25 sec) 
Heartbeat CPU  0 instructions:  360000000 cycles:  807670793 heartbeat IPC: 0.37420 cumulative IPC: 0.37112 (Simulation time: 0 hr 11 min 27 sec) 
Heartbeat CPU  0 instructions:  361000000 cycles:  810198013 heartbeat IPC: 0.39569 cumulative IPC: 0.37121 (Simulation time: 0 hr 11 min 29 sec) 
Heartbeat CPU  0 instructions:  362000000 cycles:  813092477 heartbeat IPC: 0.34549 cumulative IPC: 0.37110 (Simulation time: 0 hr 11 min 31 sec) 
Heartbeat CPU  0 instructions:  363000000 cycles:  815873831 heartbeat IPC: 0.35954 cumulative IPC: 0.37106 (Simulation time: 0 hr 11 min 33 sec) 
Heartbeat CPU  0 instructions:  364000000 cycles:  818277810 heartbeat IPC: 0.41598 cumulative IPC: 0.37121 (Simulation time: 0 hr 11 min 35 sec) 
Heartbeat CPU  0 instructions:  365000000 cycles:  820688326 heartbeat IPC: 0.41485 cumulative IPC: 0.37135 (Simulation time: 0 hr 11 min 36 sec) 
Heartbeat CPU  0 instructions:  366000002 cycles:  822542959 heartbeat IPC: 0.53919 cumulative IPC: 0.37179 (Simulation time: 0 hr 11 min 38 sec) 
Heartbeat CPU  0 instructions:  367000000 cycles:  824295168 heartbeat IPC: 0.57071 cumulative IPC: 0.37228 (Simulation time: 0 hr 11 min 39 sec) 
Heartbeat CPU  0 instructions:  368000000 cycles:  826972040 heartbeat IPC: 0.37357 cumulative IPC: 0.37228 (Simulation time: 0 hr 11 min 41 sec) 
Heartbeat CPU  0 instructions:  369000000 cycles:  829755674 heartbeat IPC: 0.35924 cumulative IPC: 0.37223 (Simulation time: 0 hr 11 min 43 sec) 
Heartbeat CPU  0 instructions:  370000000 cycles:  832613875 heartbeat IPC: 0.34987 cumulative IPC: 0.37214 (Simulation time: 0 hr 11 min 45 sec) 
Heartbeat CPU  0 instructions:  371000003 cycles:  835273142 heartbeat IPC: 0.37604 cumulative IPC: 0.37216 (Simulation time: 0 hr 11 min 47 sec) 
Heartbeat CPU  0 instructions:  372000000 cycles:  837930164 heartbeat IPC: 0.37636 cumulative IPC: 0.37217 (Simulation time: 0 hr 11 min 49 sec) 
Heartbeat CPU  0 instructions:  373000002 cycles:  840592987 heartbeat IPC: 0.37554 cumulative IPC: 0.37218 (Simulation time: 0 hr 11 min 51 sec) 
Heartbeat CPU  0 instructions:  374000001 cycles:  843382007 heartbeat IPC: 0.35855 cumulative IPC: 0.37213 (Simulation time: 0 hr 11 min 52 sec) 
Heartbeat CPU  0 instructions:  375000000 cycles:  846147514 heartbeat IPC: 0.36160 cumulative IPC: 0.37209 (Simulation time: 0 hr 11 min 54 sec) 
Heartbeat CPU  0 instructions:  376000000 cycles:  848917412 heartbeat IPC: 0.36102 cumulative IPC: 0.37205 (Simulation time: 0 hr 11 min 56 sec) 
Heartbeat CPU  0 instructions:  377000002 cycles:  851680594 heartbeat IPC: 0.36190 cumulative IPC: 0.37201 (Simulation time: 0 hr 11 min 58 sec) 
Heartbeat CPU  0 instructions:  378000001 cycles:  854440376 heartbeat IPC: 0.36235 cumulative IPC: 0.37198 (Simulation time: 0 hr 12 min 0 sec) 
Heartbeat CPU  0 instructions:  379000000 cycles:  857288936 heartbeat IPC: 0.35105 cumulative IPC: 0.37190 (Simulation time: 0 hr 12 min 2 sec) 
Heartbeat CPU  0 instructions:  380000000 cycles:  860103655 heartbeat IPC: 0.35528 cumulative IPC: 0.37184 (Simulation time: 0 hr 12 min 4 sec) 
Heartbeat CPU  0 instructions:  381000002 cycles:  862931927 heartbeat IPC: 0.35357 cumulative IPC: 0.37177 (Simulation time: 0 hr 12 min 6 sec) 
Heartbeat CPU  0 instructions:  382000000 cycles:  865638834 heartbeat IPC: 0.36942 cumulative IPC: 0.37176 (Simulation time: 0 hr 12 min 8 sec) 
Heartbeat CPU  0 instructions:  383000001 cycles:  868363752 heartbeat IPC: 0.36698 cumulative IPC: 0.37174 (Simulation time: 0 hr 12 min 9 sec) 
Heartbeat CPU  0 instructions:  384000000 cycles:  871157680 heartbeat IPC: 0.35792 cumulative IPC: 0.37169 (Simulation time: 0 hr 12 min 11 sec) 
Heartbeat CPU  0 instructions:  385000002 cycles:  873873101 heartbeat IPC: 0.36827 cumulative IPC: 0.37168 (Simulation time: 0 hr 12 min 13 sec) 
Heartbeat CPU  0 instructions:  386000000 cycles:  876444875 heartbeat IPC: 0.38884 cumulative IPC: 0.37174 (Simulation time: 0 hr 12 min 15 sec) 
Heartbeat CPU  0 instructions:  387000000 cycles:  879052524 heartbeat IPC: 0.38349 cumulative IPC: 0.37178 (Simulation time: 0 hr 12 min 17 sec) 
Heartbeat CPU  0 instructions:  388000000 cycles:  881854822 heartbeat IPC: 0.35685 cumulative IPC: 0.37172 (Simulation time: 0 hr 12 min 19 sec) 
Heartbeat CPU  0 instructions:  389000000 cycles:  884513359 heartbeat IPC: 0.37615 cumulative IPC: 0.37174 (Simulation time: 0 hr 12 min 21 sec) 
Heartbeat CPU  0 instructions:  390000001 cycles:  887362023 heartbeat IPC: 0.35104 cumulative IPC: 0.37166 (Simulation time: 0 hr 12 min 23 sec) 
Heartbeat CPU  0 instructions:  391000001 cycles:  890104066 heartbeat IPC: 0.36469 cumulative IPC: 0.37164 (Simulation time: 0 hr 12 min 25 sec) 
Heartbeat CPU  0 instructions:  392000000 cycles:  892711454 heartbeat IPC: 0.38353 cumulative IPC: 0.37168 (Simulation time: 0 hr 12 min 26 sec) 
Heartbeat CPU  0 instructions:  393000001 cycles:  895496154 heartbeat IPC: 0.35911 cumulative IPC: 0.37163 (Simulation time: 0 hr 12 min 28 sec) 
Heartbeat CPU  0 instructions:  394000002 cycles:  898201647 heartbeat IPC: 0.36962 cumulative IPC: 0.37163 (Simulation time: 0 hr 12 min 30 sec) 
Heartbeat CPU  0 instructions:  395000000 cycles:  900764054 heartbeat IPC: 0.39026 cumulative IPC: 0.37169 (Simulation time: 0 hr 12 min 32 sec) 
Heartbeat CPU  0 instructions:  396000000 cycles:  903586838 heartbeat IPC: 0.35426 cumulative IPC: 0.37162 (Simulation time: 0 hr 12 min 34 sec) 
Heartbeat CPU  0 instructions:  397000000 cycles:  906346750 heartbeat IPC: 0.36233 cumulative IPC: 0.37159 (Simulation time: 0 hr 12 min 36 sec) 
Heartbeat CPU  0 instructions:  398000000 cycles:  908860040 heartbeat IPC: 0.39788 cumulative IPC: 0.37168 (Simulation time: 0 hr 12 min 37 sec) 
Heartbeat CPU  0 instructions:  399000000 cycles:  911654467 heartbeat IPC: 0.35786 cumulative IPC: 0.37163 (Simulation time: 0 hr 12 min 39 sec) 
Heartbeat CPU  0 instructions:  400000000 cycles:  914203520 heartbeat IPC: 0.39230 cumulative IPC: 0.37169 (Simulation time: 0 hr 12 min 41 sec) 
Heartbeat CPU  0 instructions:  401000003 cycles:  916895254 heartbeat IPC: 0.37151 cumulative IPC: 0.37169 (Simulation time: 0 hr 12 min 43 sec) 
Heartbeat CPU  0 instructions:  402000001 cycles:  919445330 heartbeat IPC: 0.39214 cumulative IPC: 0.37176 (Simulation time: 0 hr 12 min 45 sec) 
Heartbeat CPU  0 instructions:  403000001 cycles:  921907947 heartbeat IPC: 0.40607 cumulative IPC: 0.37186 (Simulation time: 0 hr 12 min 47 sec) 
Heartbeat CPU  0 instructions:  404000000 cycles:  924766080 heartbeat IPC: 0.34988 cumulative IPC: 0.37178 (Simulation time: 0 hr 12 min 48 sec) 
Heartbeat CPU  0 instructions:  405000001 cycles:  927602362 heartbeat IPC: 0.35257 cumulative IPC: 0.37172 (Simulation time: 0 hr 12 min 50 sec) 
Heartbeat CPU  0 instructions:  406000002 cycles:  930429561 heartbeat IPC: 0.35371 cumulative IPC: 0.37165 (Simulation time: 0 hr 12 min 52 sec) 
Heartbeat CPU  0 instructions:  407000000 cycles:  933065905 heartbeat IPC: 0.37931 cumulative IPC: 0.37168 (Simulation time: 0 hr 12 min 54 sec) 
Heartbeat CPU  0 instructions:  408000000 cycles:  935799921 heartbeat IPC: 0.36576 cumulative IPC: 0.37166 (Simulation time: 0 hr 12 min 56 sec) 
Heartbeat CPU  0 instructions:  409000003 cycles:  938522000 heartbeat IPC: 0.36737 cumulative IPC: 0.37165 (Simulation time: 0 hr 12 min 58 sec) 
Heartbeat CPU  0 instructions:  410000002 cycles:  941151569 heartbeat IPC: 0.38029 cumulative IPC: 0.37167 (Simulation time: 0 hr 13 min 0 sec) 
Heartbeat CPU  0 instructions:  411000000 cycles:  943889728 heartbeat IPC: 0.36521 cumulative IPC: 0.37165 (Simulation time: 0 hr 13 min 1 sec) 
Heartbeat CPU  0 instructions:  412000000 cycles:  946550748 heartbeat IPC: 0.37580 cumulative IPC: 0.37166 (Simulation time: 0 hr 13 min 3 sec) 
Heartbeat CPU  0 instructions:  413000001 cycles:  949355364 heartbeat IPC: 0.35656 cumulative IPC: 0.37161 (Simulation time: 0 hr 13 min 5 sec) 
Heartbeat CPU  0 instructions:  414000003 cycles:  951958147 heartbeat IPC: 0.38420 cumulative IPC: 0.37165 (Simulation time: 0 hr 13 min 7 sec) 
Heartbeat CPU  0 instructions:  415000002 cycles:  954616161 heartbeat IPC: 0.37622 cumulative IPC: 0.37167 (Simulation time: 0 hr 13 min 9 sec) 
Heartbeat CPU  0 instructions:  416000000 cycles:  957292086 heartbeat IPC: 0.37370 cumulative IPC: 0.37167 (Simulation time: 0 hr 13 min 11 sec) 
Heartbeat CPU  0 instructions:  417000003 cycles:  960018805 heartbeat IPC: 0.36674 cumulative IPC: 0.37166 (Simulation time: 0 hr 13 min 12 sec) 
Heartbeat CPU  0 instructions:  418000001 cycles:  962782701 heartbeat IPC: 0.36181 cumulative IPC: 0.37163 (Simulation time: 0 hr 13 min 14 sec) 
Heartbeat CPU  0 instructions:  419000000 cycles:  965594395 heartbeat IPC: 0.35566 cumulative IPC: 0.37157 (Simulation time: 0 hr 13 min 16 sec) 
Heartbeat CPU  0 instructions:  420000000 cycles:  968327249 heartbeat IPC: 0.36592 cumulative IPC: 0.37156 (Simulation time: 0 hr 13 min 18 sec) 
Heartbeat CPU  0 instructions:  421000000 cycles:  970828166 heartbeat IPC: 0.39985 cumulative IPC: 0.37164 (Simulation time: 0 hr 13 min 20 sec) 
Heartbeat CPU  0 instructions:  422000001 cycles:  973647414 heartbeat IPC: 0.35470 cumulative IPC: 0.37158 (Simulation time: 0 hr 13 min 22 sec) 
Heartbeat CPU  0 instructions:  423000003 cycles:  976333365 heartbeat IPC: 0.37231 cumulative IPC: 0.37159 (Simulation time: 0 hr 13 min 24 sec) 
Heartbeat CPU  0 instructions:  424000000 cycles:  978889946 heartbeat IPC: 0.39115 cumulative IPC: 0.37164 (Simulation time: 0 hr 13 min 25 sec) 
Heartbeat CPU  0 instructions:  425000001 cycles:  981610958 heartbeat IPC: 0.36751 cumulative IPC: 0.37163 (Simulation time: 0 hr 13 min 27 sec) 
Heartbeat CPU  0 instructions:  426000003 cycles:  984101468 heartbeat IPC: 0.40152 cumulative IPC: 0.37171 (Simulation time: 0 hr 13 min 29 sec) 
Heartbeat CPU  0 instructions:  427000002 cycles:  986672219 heartbeat IPC: 0.38899 cumulative IPC: 0.37177 (Simulation time: 0 hr 13 min 31 sec) 
Heartbeat CPU  0 instructions:  428000000 cycles:  989258946 heartbeat IPC: 0.38659 cumulative IPC: 0.37181 (Simulation time: 0 hr 13 min 33 sec) 
Heartbeat CPU  0 instructions:  429000003 cycles:  991803274 heartbeat IPC: 0.39303 cumulative IPC: 0.37187 (Simulation time: 0 hr 13 min 34 sec) 
Heartbeat CPU  0 instructions:  430000002 cycles:  994554759 heartbeat IPC: 0.36344 cumulative IPC: 0.37184 (Simulation time: 0 hr 13 min 36 sec) 
Heartbeat CPU  0 instructions:  431000001 cycles:  997047933 heartbeat IPC: 0.40109 cumulative IPC: 0.37193 (Simulation time: 0 hr 13 min 38 sec) 
Heartbeat CPU  0 instructions:  432000000 cycles:  999743568 heartbeat IPC: 0.37097 cumulative IPC: 0.37192 (Simulation time: 0 hr 13 min 40 sec) 
Heartbeat CPU  0 instructions:  433000003 cycles: 1002402933 heartbeat IPC: 0.37603 cumulative IPC: 0.37193 (Simulation time: 0 hr 13 min 42 sec) 
Heartbeat CPU  0 instructions:  434000000 cycles: 1004938924 heartbeat IPC: 0.39432 cumulative IPC: 0.37200 (Simulation time: 0 hr 13 min 44 sec) 
Heartbeat CPU  0 instructions:  435000000 cycles: 1007727381 heartbeat IPC: 0.35862 cumulative IPC: 0.37196 (Simulation time: 0 hr 13 min 45 sec) 
Heartbeat CPU  0 instructions:  436000000 cycles: 1009999987 heartbeat IPC: 0.44002 cumulative IPC: 0.37213 (Simulation time: 0 hr 13 min 47 sec) 
Heartbeat CPU  0 instructions:  437000003 cycles: 1012566539 heartbeat IPC: 0.38963 cumulative IPC: 0.37218 (Simulation time: 0 hr 13 min 49 sec) 
Heartbeat CPU  0 instructions:  438000001 cycles: 1015432279 heartbeat IPC: 0.34895 cumulative IPC: 0.37210 (Simulation time: 0 hr 13 min 51 sec) 
Heartbeat CPU  0 instructions:  439000000 cycles: 1018318407 heartbeat IPC: 0.34648 cumulative IPC: 0.37202 (Simulation time: 0 hr 13 min 53 sec) 
Heartbeat CPU  0 instructions:  440000000 cycles: 1021080495 heartbeat IPC: 0.36204 cumulative IPC: 0.37199 (Simulation time: 0 hr 13 min 55 sec) 
Heartbeat CPU  0 instructions:  441000003 cycles: 1023862752 heartbeat IPC: 0.35942 cumulative IPC: 0.37195 (Simulation time: 0 hr 13 min 56 sec) 
Heartbeat CPU  0 instructions:  442000002 cycles: 1026622385 heartbeat IPC: 0.36237 cumulative IPC: 0.37193 (Simulation time: 0 hr 13 min 58 sec) 
Heartbeat CPU  0 instructions:  443000001 cycles: 1029453844 heartbeat IPC: 0.35317 cumulative IPC: 0.37187 (Simulation time: 0 hr 14 min 0 sec) 
Heartbeat CPU  0 instructions:  444000000 cycles: 1032226525 heartbeat IPC: 0.36066 cumulative IPC: 0.37183 (Simulation time: 0 hr 14 min 2 sec) 
Heartbeat CPU  0 instructions:  445000000 cycles: 1035086676 heartbeat IPC: 0.34963 cumulative IPC: 0.37177 (Simulation time: 0 hr 14 min 4 sec) 
Heartbeat CPU  0 instructions:  446000002 cycles: 1037928224 heartbeat IPC: 0.35192 cumulative IPC: 0.37171 (Simulation time: 0 hr 14 min 6 sec) 
Heartbeat CPU  0 instructions:  447000000 cycles: 1040698317 heartbeat IPC: 0.36100 cumulative IPC: 0.37167 (Simulation time: 0 hr 14 min 8 sec) 
Heartbeat CPU  0 instructions:  448000000 cycles: 1043221564 heartbeat IPC: 0.39631 cumulative IPC: 0.37174 (Simulation time: 0 hr 14 min 10 sec) 
Heartbeat CPU  0 instructions:  449000001 cycles: 1046081889 heartbeat IPC: 0.34961 cumulative IPC: 0.37167 (Simulation time: 0 hr 14 min 12 sec) 
Heartbeat CPU  0 instructions:  450000002 cycles: 1048837824 heartbeat IPC: 0.36285 cumulative IPC: 0.37165 (Simulation time: 0 hr 14 min 14 sec) 
Heartbeat CPU  0 instructions:  451000001 cycles: 1051521265 heartbeat IPC: 0.37266 cumulative IPC: 0.37165 (Simulation time: 0 hr 14 min 15 sec) 
Heartbeat CPU  0 instructions:  452000000 cycles: 1054338478 heartbeat IPC: 0.35496 cumulative IPC: 0.37160 (Simulation time: 0 hr 14 min 17 sec) 
Heartbeat CPU  0 instructions:  453000001 cycles: 1057131877 heartbeat IPC: 0.35799 cumulative IPC: 0.37156 (Simulation time: 0 hr 14 min 19 sec) 
Heartbeat CPU  0 instructions:  454000003 cycles: 1059982709 heartbeat IPC: 0.35078 cumulative IPC: 0.37150 (Simulation time: 0 hr 14 min 21 sec) 
Heartbeat CPU  0 instructions:  455000000 cycles: 1062693802 heartbeat IPC: 0.36885 cumulative IPC: 0.37149 (Simulation time: 0 hr 14 min 23 sec) 
Heartbeat CPU  0 instructions:  456000000 cycles: 1065510774 heartbeat IPC: 0.35499 cumulative IPC: 0.37144 (Simulation time: 0 hr 14 min 25 sec) 
Heartbeat CPU  0 instructions:  457000000 cycles: 1068231763 heartbeat IPC: 0.36751 cumulative IPC: 0.37143 (Simulation time: 0 hr 14 min 27 sec) 
Heartbeat CPU  0 instructions:  458000003 cycles: 1071014458 heartbeat IPC: 0.35936 cumulative IPC: 0.37140 (Simulation time: 0 hr 14 min 29 sec) 
Heartbeat CPU  0 instructions:  459000001 cycles: 1073744747 heartbeat IPC: 0.36626 cumulative IPC: 0.37138 (Simulation time: 0 hr 14 min 30 sec) 
Heartbeat CPU  0 instructions:  460000000 cycles: 1076457643 heartbeat IPC: 0.36861 cumulative IPC: 0.37137 (Simulation time: 0 hr 14 min 32 sec) 
Heartbeat CPU  0 instructions:  461000002 cycles: 1079209708 heartbeat IPC: 0.36336 cumulative IPC: 0.37135 (Simulation time: 0 hr 14 min 34 sec) 
Heartbeat CPU  0 instructions:  462000001 cycles: 1081936319 heartbeat IPC: 0.36676 cumulative IPC: 0.37134 (Simulation time: 0 hr 14 min 36 sec) 
Heartbeat CPU  0 instructions:  463000001 cycles: 1084758738 heartbeat IPC: 0.35431 cumulative IPC: 0.37129 (Simulation time: 0 hr 14 min 38 sec) 
Heartbeat CPU  0 instructions:  464000000 cycles: 1087551858 heartbeat IPC: 0.35802 cumulative IPC: 0.37125 (Simulation time: 0 hr 14 min 40 sec) 
Heartbeat CPU  0 instructions:  465000001 cycles: 1090178714 heartbeat IPC: 0.38068 cumulative IPC: 0.37128 (Simulation time: 0 hr 14 min 42 sec) 
Heartbeat CPU  0 instructions:  466000000 cycles: 1092893757 heartbeat IPC: 0.36832 cumulative IPC: 0.37127 (Simulation time: 0 hr 14 min 43 sec) 
Heartbeat CPU  0 instructions:  467000003 cycles: 1095596891 heartbeat IPC: 0.36994 cumulative IPC: 0.37126 (Simulation time: 0 hr 14 min 45 sec) 
Heartbeat CPU  0 instructions:  468000000 cycles: 1098230337 heartbeat IPC: 0.37973 cumulative IPC: 0.37129 (Simulation time: 0 hr 14 min 47 sec) 
Heartbeat CPU  0 instructions:  469000002 cycles: 1100788285 heartbeat IPC: 0.39094 cumulative IPC: 0.37134 (Simulation time: 0 hr 14 min 49 sec) 
Heartbeat CPU  0 instructions:  470000000 cycles: 1103487864 heartbeat IPC: 0.37043 cumulative IPC: 0.37134 (Simulation time: 0 hr 14 min 51 sec) 
Heartbeat CPU  0 instructions:  471000000 cycles: 1106074015 heartbeat IPC: 0.38668 cumulative IPC: 0.37138 (Simulation time: 0 hr 14 min 53 sec) 
Heartbeat CPU  0 instructions:  472000000 cycles: 1108732284 heartbeat IPC: 0.37618 cumulative IPC: 0.37139 (Simulation time: 0 hr 14 min 54 sec) 
Heartbeat CPU  0 instructions:  473000001 cycles: 1111655063 heartbeat IPC: 0.34214 cumulative IPC: 0.37130 (Simulation time: 0 hr 14 min 56 sec) 
Heartbeat CPU  0 instructions:  474000000 cycles: 1114264854 heartbeat IPC: 0.38317 cumulative IPC: 0.37133 (Simulation time: 0 hr 14 min 58 sec) 
Heartbeat CPU  0 instructions:  475000000 cycles: 1117077815 heartbeat IPC: 0.35550 cumulative IPC: 0.37129 (Simulation time: 0 hr 15 min 0 sec) 
Heartbeat CPU  0 instructions:  476000000 cycles: 1119885558 heartbeat IPC: 0.35616 cumulative IPC: 0.37125 (Simulation time: 0 hr 15 min 2 sec) 
Heartbeat CPU  0 instructions:  477000003 cycles: 1122586350 heartbeat IPC: 0.37026 cumulative IPC: 0.37125 (Simulation time: 0 hr 15 min 4 sec) 
Heartbeat CPU  0 instructions:  478000001 cycles: 1125245850 heartbeat IPC: 0.37601 cumulative IPC: 0.37126 (Simulation time: 0 hr 15 min 5 sec) 
Heartbeat CPU  0 instructions:  479000001 cycles: 1127851014 heartbeat IPC: 0.38385 cumulative IPC: 0.37129 (Simulation time: 0 hr 15 min 7 sec) 
Heartbeat CPU  0 instructions:  480000000 cycles: 1130700687 heartbeat IPC: 0.35092 cumulative IPC: 0.37123 (Simulation time: 0 hr 15 min 9 sec) 
Heartbeat CPU  0 instructions:  481000000 cycles: 1133344823 heartbeat IPC: 0.37820 cumulative IPC: 0.37125 (Simulation time: 0 hr 15 min 11 sec) 
Heartbeat CPU  0 instructions:  482000000 cycles: 1135972630 heartbeat IPC: 0.38055 cumulative IPC: 0.37127 (Simulation time: 0 hr 15 min 13 sec) 
Heartbeat CPU  0 instructions:  483000000 cycles: 1138494287 heartbeat IPC: 0.39656 cumulative IPC: 0.37134 (Simulation time: 0 hr 15 min 15 sec) 
Heartbeat CPU  0 instructions:  484000000 cycles: 1141183337 heartbeat IPC: 0.37188 cumulative IPC: 0.37134 (Simulation time: 0 hr 15 min 16 sec) 
Heartbeat CPU  0 instructions:  485000000 cycles: 1143840937 heartbeat IPC: 0.37628 cumulative IPC: 0.37135 (Simulation time: 0 hr 15 min 18 sec) 
Heartbeat CPU  0 instructions:  486000000 cycles: 1146450354 heartbeat IPC: 0.38323 cumulative IPC: 0.37138 (Simulation time: 0 hr 15 min 20 sec) 
Heartbeat CPU  0 instructions:  487000003 cycles: 1149244399 heartbeat IPC: 0.35791 cumulative IPC: 0.37134 (Simulation time: 0 hr 15 min 22 sec) 
Heartbeat CPU  0 instructions:  488000000 cycles: 1152046421 heartbeat IPC: 0.35688 cumulative IPC: 0.37131 (Simulation time: 0 hr 15 min 24 sec) 
Heartbeat CPU  0 instructions:  489000000 cycles: 1154755412 heartbeat IPC: 0.36914 cumulative IPC: 0.37130 (Simulation time: 0 hr 15 min 26 sec) 
Heartbeat CPU  0 instructions:  490000003 cycles: 1157514237 heartbeat IPC: 0.36247 cumulative IPC: 0.37128 (Simulation time: 0 hr 15 min 28 sec) 
Heartbeat CPU  0 instructions:  491000001 cycles: 1160239461 heartbeat IPC: 0.36694 cumulative IPC: 0.37127 (Simulation time: 0 hr 15 min 29 sec) 
Heartbeat CPU  0 instructions:  492000000 cycles: 1163017577 heartbeat IPC: 0.35996 cumulative IPC: 0.37124 (Simulation time: 0 hr 15 min 31 sec) 
Heartbeat CPU  0 instructions:  493000000 cycles: 1165699881 heartbeat IPC: 0.37281 cumulative IPC: 0.37124 (Simulation time: 0 hr 15 min 33 sec) 
Heartbeat CPU  0 instructions:  494000000 cycles: 1168313420 heartbeat IPC: 0.38262 cumulative IPC: 0.37127 (Simulation time: 0 hr 15 min 35 sec) 
Heartbeat CPU  0 instructions:  495000001 cycles: 1171149316 heartbeat IPC: 0.35262 cumulative IPC: 0.37122 (Simulation time: 0 hr 15 min 37 sec) 
Heartbeat CPU  0 instructions:  496000000 cycles: 1173900898 heartbeat IPC: 0.36343 cumulative IPC: 0.37120 (Simulation time: 0 hr 15 min 39 sec) 
Heartbeat CPU  0 instructions:  497000001 cycles: 1176672162 heartbeat IPC: 0.36085 cumulative IPC: 0.37117 (Simulation time: 0 hr 15 min 41 sec) 
Heartbeat CPU  0 instructions:  498000000 cycles: 1179438260 heartbeat IPC: 0.36152 cumulative IPC: 0.37115 (Simulation time: 0 hr 15 min 42 sec) 
Heartbeat CPU  0 instructions:  499000002 cycles: 1182175424 heartbeat IPC: 0.36534 cumulative IPC: 0.37113 (Simulation time: 0 hr 15 min 44 sec) 
Heartbeat CPU  0 instructions:  500000000 cycles: 1184850637 heartbeat IPC: 0.37380 cumulative IPC: 0.37114 (Simulation time: 0 hr 15 min 46 sec) 
Heartbeat CPU  0 instructions:  501000000 cycles: 1187548285 heartbeat IPC: 0.37069 cumulative IPC: 0.37114 (Simulation time: 0 hr 15 min 48 sec) 
Heartbeat CPU  0 instructions:  502000000 cycles: 1190329062 heartbeat IPC: 0.35961 cumulative IPC: 0.37111 (Simulation time: 0 hr 15 min 50 sec) 
Heartbeat CPU  0 instructions:  503000002 cycles: 1193108140 heartbeat IPC: 0.35983 cumulative IPC: 0.37108 (Simulation time: 0 hr 15 min 52 sec) 
Heartbeat CPU  0 instructions:  504000000 cycles: 1195939796 heartbeat IPC: 0.35315 cumulative IPC: 0.37103 (Simulation time: 0 hr 15 min 54 sec) 
Heartbeat CPU  0 instructions:  505000001 cycles: 1198525218 heartbeat IPC: 0.38678 cumulative IPC: 0.37107 (Simulation time: 0 hr 15 min 55 sec) 
Heartbeat CPU  0 instructions:  506000001 cycles: 1201341840 heartbeat IPC: 0.35504 cumulative IPC: 0.37103 (Simulation time: 0 hr 15 min 57 sec) 
Heartbeat CPU  0 instructions:  507000003 cycles: 1204166784 heartbeat IPC: 0.35399 cumulative IPC: 0.37098 (Simulation time: 0 hr 15 min 59 sec) 
Heartbeat CPU  0 instructions:  508000000 cycles: 1206903846 heartbeat IPC: 0.36535 cumulative IPC: 0.37097 (Simulation time: 0 hr 16 min 1 sec) 
Heartbeat CPU  0 instructions:  509000001 cycles: 1209450496 heartbeat IPC: 0.39267 cumulative IPC: 0.37102 (Simulation time: 0 hr 16 min 3 sec) 
Heartbeat CPU  0 instructions:  510000003 cycles: 1212169967 heartbeat IPC: 0.36772 cumulative IPC: 0.37101 (Simulation time: 0 hr 16 min 5 sec) 
Heartbeat CPU  0 instructions:  511000001 cycles: 1214568070 heartbeat IPC: 0.41700 cumulative IPC: 0.37111 (Simulation time: 0 hr 16 min 6 sec) 
Heartbeat CPU  0 instructions:  512000000 cycles: 1217311545 heartbeat IPC: 0.36450 cumulative IPC: 0.37110 (Simulation time: 0 hr 16 min 8 sec) 
Heartbeat CPU  0 instructions:  513000001 cycles: 1219996715 heartbeat IPC: 0.37242 cumulative IPC: 0.37110 (Simulation time: 0 hr 16 min 10 sec) 
Heartbeat CPU  0 instructions:  514000002 cycles: 1222664223 heartbeat IPC: 0.37488 cumulative IPC: 0.37111 (Simulation time: 0 hr 16 min 12 sec) 
Heartbeat CPU  0 instructions:  515000001 cycles: 1225164502 heartbeat IPC: 0.39995 cumulative IPC: 0.37117 (Simulation time: 0 hr 16 min 13 sec) 
Heartbeat CPU  0 instructions:  516000000 cycles: 1227647961 heartbeat IPC: 0.40266 cumulative IPC: 0.37124 (Simulation time: 0 hr 16 min 15 sec) 
Heartbeat CPU  0 instructions:  517000002 cycles: 1230468569 heartbeat IPC: 0.35453 cumulative IPC: 0.37120 (Simulation time: 0 hr 16 min 17 sec) 
Heartbeat CPU  0 instructions:  518000001 cycles: 1233287831 heartbeat IPC: 0.35470 cumulative IPC: 0.37116 (Simulation time: 0 hr 16 min 19 sec) 
Heartbeat CPU  0 instructions:  519000001 cycles: 1235969477 heartbeat IPC: 0.37291 cumulative IPC: 0.37116 (Simulation time: 0 hr 16 min 21 sec) 
Heartbeat CPU  0 instructions:  520000000 cycles: 1238771386 heartbeat IPC: 0.35690 cumulative IPC: 0.37113 (Simulation time: 0 hr 16 min 23 sec) 
Heartbeat CPU  0 instructions:  521000000 cycles: 1241422512 heartbeat IPC: 0.37720 cumulative IPC: 0.37114 (Simulation time: 0 hr 16 min 24 sec) 
Heartbeat CPU  0 instructions:  522000000 cycles: 1244033177 heartbeat IPC: 0.38304 cumulative IPC: 0.37117 (Simulation time: 0 hr 16 min 26 sec) 
Heartbeat CPU  0 instructions:  523000002 cycles: 1246472453 heartbeat IPC: 0.40996 cumulative IPC: 0.37125 (Simulation time: 0 hr 16 min 28 sec) 
Heartbeat CPU  0 instructions:  524000000 cycles: 1249240880 heartbeat IPC: 0.36122 cumulative IPC: 0.37123 (Simulation time: 0 hr 16 min 30 sec) 
Heartbeat CPU  0 instructions:  525000000 cycles: 1251820687 heartbeat IPC: 0.38763 cumulative IPC: 0.37126 (Simulation time: 0 hr 16 min 31 sec) 
Heartbeat CPU  0 instructions:  526000000 cycles: 1254422574 heartbeat IPC: 0.38434 cumulative IPC: 0.37129 (Simulation time: 0 hr 16 min 33 sec) 
Heartbeat CPU  0 instructions:  527000000 cycles: 1256708461 heartbeat IPC: 0.43747 cumulative IPC: 0.37143 (Simulation time: 0 hr 16 min 35 sec) 
Heartbeat CPU  0 instructions:  528000000 cycles: 1259179399 heartbeat IPC: 0.40470 cumulative IPC: 0.37150 (Simulation time: 0 hr 16 min 37 sec) 
Heartbeat CPU  0 instructions:  529000001 cycles: 1261534798 heartbeat IPC: 0.42456 cumulative IPC: 0.37161 (Simulation time: 0 hr 16 min 39 sec) 
Heartbeat CPU  0 instructions:  530000000 cycles: 1263750774 heartbeat IPC: 0.45127 cumulative IPC: 0.37176 (Simulation time: 0 hr 16 min 40 sec) 
Heartbeat CPU  0 instructions:  531000001 cycles: 1266295130 heartbeat IPC: 0.39303 cumulative IPC: 0.37180 (Simulation time: 0 hr 16 min 42 sec) 
Heartbeat CPU  0 instructions:  532000000 cycles: 1268448361 heartbeat IPC: 0.46442 cumulative IPC: 0.37198 (Simulation time: 0 hr 16 min 44 sec) 
Heartbeat CPU  0 instructions:  533000000 cycles: 1271246913 heartbeat IPC: 0.35733 cumulative IPC: 0.37194 (Simulation time: 0 hr 16 min 46 sec) 
Heartbeat CPU  0 instructions:  534000003 cycles: 1273607935 heartbeat IPC: 0.42355 cumulative IPC: 0.37205 (Simulation time: 0 hr 16 min 47 sec) 
Heartbeat CPU  0 instructions:  535000002 cycles: 1276342223 heartbeat IPC: 0.36573 cumulative IPC: 0.37203 (Simulation time: 0 hr 16 min 49 sec) 
Heartbeat CPU  0 instructions:  536000000 cycles: 1278711773 heartbeat IPC: 0.42202 cumulative IPC: 0.37213 (Simulation time: 0 hr 16 min 51 sec) 
Heartbeat CPU  0 instructions:  537000002 cycles: 1281210678 heartbeat IPC: 0.40018 cumulative IPC: 0.37219 (Simulation time: 0 hr 16 min 53 sec) 
Heartbeat CPU  0 instructions:  538000000 cycles: 1283695683 heartbeat IPC: 0.40241 cumulative IPC: 0.37226 (Simulation time: 0 hr 16 min 54 sec) 
Heartbeat CPU  0 instructions:  539000001 cycles: 1286239249 heartbeat IPC: 0.39315 cumulative IPC: 0.37230 (Simulation time: 0 hr 16 min 56 sec) 
Heartbeat CPU  0 instructions:  540000000 cycles: 1288781141 heartbeat IPC: 0.39341 cumulative IPC: 0.37235 (Simulation time: 0 hr 16 min 58 sec) 
Heartbeat CPU  0 instructions:  541000001 cycles: 1291542196 heartbeat IPC: 0.36218 cumulative IPC: 0.37232 (Simulation time: 0 hr 17 min 0 sec) 
Heartbeat CPU  0 instructions:  542000001 cycles: 1294199667 heartbeat IPC: 0.37630 cumulative IPC: 0.37233 (Simulation time: 0 hr 17 min 2 sec) 
Heartbeat CPU  0 instructions:  543000002 cycles: 1296985924 heartbeat IPC: 0.35890 cumulative IPC: 0.37230 (Simulation time: 0 hr 17 min 4 sec) 
Heartbeat CPU  0 instructions:  544000000 cycles: 1299633739 heartbeat IPC: 0.37767 cumulative IPC: 0.37231 (Simulation time: 0 hr 17 min 5 sec) 
Heartbeat CPU  0 instructions:  545000001 cycles: 1302296745 heartbeat IPC: 0.37552 cumulative IPC: 0.37232 (Simulation time: 0 hr 17 min 7 sec) 
Heartbeat CPU  0 instructions:  546000001 cycles: 1305018074 heartbeat IPC: 0.36747 cumulative IPC: 0.37231 (Simulation time: 0 hr 17 min 9 sec) 
Heartbeat CPU  0 instructions:  547000000 cycles: 1307684237 heartbeat IPC: 0.37507 cumulative IPC: 0.37231 (Simulation time: 0 hr 17 min 11 sec) 
Heartbeat CPU  0 instructions:  548000000 cycles: 1310241215 heartbeat IPC: 0.39109 cumulative IPC: 0.37235 (Simulation time: 0 hr 17 min 13 sec) 
Heartbeat CPU  0 instructions:  549000000 cycles: 1312768441 heartbeat IPC: 0.39569 cumulative IPC: 0.37240 (Simulation time: 0 hr 17 min 14 sec) 
Heartbeat CPU  0 instructions:  550000001 cycles: 1315652857 heartbeat IPC: 0.34669 cumulative IPC: 0.37234 (Simulation time: 0 hr 17 min 16 sec) 
Heartbeat CPU  0 instructions:  551000003 cycles: 1318311478 heartbeat IPC: 0.37614 cumulative IPC: 0.37235 (Simulation time: 0 hr 17 min 18 sec) 
Heartbeat CPU  0 instructions:  552000000 cycles: 1320897625 heartbeat IPC: 0.38667 cumulative IPC: 0.37238 (Simulation time: 0 hr 17 min 20 sec) 
Heartbeat CPU  0 instructions:  553000002 cycles: 1323515974 heartbeat IPC: 0.38192 cumulative IPC: 0.37240 (Simulation time: 0 hr 17 min 22 sec) 
Heartbeat CPU  0 instructions:  554000000 cycles: 1325974061 heartbeat IPC: 0.40682 cumulative IPC: 0.37247 (Simulation time: 0 hr 17 min 23 sec) 
Heartbeat CPU  0 instructions:  555000003 cycles: 1328738838 heartbeat IPC: 0.36169 cumulative IPC: 0.37245 (Simulation time: 0 hr 17 min 25 sec) 
Heartbeat CPU  0 instructions:  556000000 cycles: 1331390835 heartbeat IPC: 0.37707 cumulative IPC: 0.37246 (Simulation time: 0 hr 17 min 27 sec) 
Heartbeat CPU  0 instructions:  557000000 cycles: 1334021360 heartbeat IPC: 0.38015 cumulative IPC: 0.37247 (Simulation time: 0 hr 17 min 29 sec) 
Heartbeat CPU  0 instructions:  558000001 cycles: 1336810119 heartbeat IPC: 0.35858 cumulative IPC: 0.37244 (Simulation time: 0 hr 17 min 31 sec) 
Heartbeat CPU  0 instructions:  559000001 cycles: 1339714096 heartbeat IPC: 0.34436 cumulative IPC: 0.37237 (Simulation time: 0 hr 17 min 33 sec) 
Heartbeat CPU  0 instructions:  560000000 cycles: 1342538991 heartbeat IPC: 0.35400 cumulative IPC: 0.37233 (Simulation time: 0 hr 17 min 34 sec) 
Heartbeat CPU  0 instructions:  561000002 cycles: 1345290254 heartbeat IPC: 0.36347 cumulative IPC: 0.37231 (Simulation time: 0 hr 17 min 36 sec) 
Heartbeat CPU  0 instructions:  562000002 cycles: 1347922899 heartbeat IPC: 0.37985 cumulative IPC: 0.37233 (Simulation time: 0 hr 17 min 38 sec) 
Heartbeat CPU  0 instructions:  563000000 cycles: 1350711372 heartbeat IPC: 0.35862 cumulative IPC: 0.37230 (Simulation time: 0 hr 17 min 40 sec) 
Heartbeat CPU  0 instructions:  564000000 cycles: 1353427482 heartbeat IPC: 0.36817 cumulative IPC: 0.37229 (Simulation time: 0 hr 17 min 42 sec) 
Heartbeat CPU  0 instructions:  565000000 cycles: 1356207028 heartbeat IPC: 0.35977 cumulative IPC: 0.37226 (Simulation time: 0 hr 17 min 44 sec) 
Heartbeat CPU  0 instructions:  566000001 cycles: 1358731104 heartbeat IPC: 0.39618 cumulative IPC: 0.37231 (Simulation time: 0 hr 17 min 45 sec) 
Heartbeat CPU  0 instructions:  567000000 cycles: 1361528615 heartbeat IPC: 0.35746 cumulative IPC: 0.37228 (Simulation time: 0 hr 17 min 47 sec) 
Heartbeat CPU  0 instructions:  568000000 cycles: 1364180995 heartbeat IPC: 0.37702 cumulative IPC: 0.37229 (Simulation time: 0 hr 17 min 49 sec) 
Heartbeat CPU  0 instructions:  569000001 cycles: 1367006454 heartbeat IPC: 0.35393 cumulative IPC: 0.37225 (Simulation time: 0 hr 17 min 51 sec) 
Heartbeat CPU  0 instructions:  570000002 cycles: 1369481991 heartbeat IPC: 0.40395 cumulative IPC: 0.37231 (Simulation time: 0 hr 17 min 53 sec) 
Heartbeat CPU  0 instructions:  571000000 cycles: 1372181085 heartbeat IPC: 0.37049 cumulative IPC: 0.37230 (Simulation time: 0 hr 17 min 54 sec) 
Heartbeat CPU  0 instructions:  572000000 cycles: 1374791689 heartbeat IPC: 0.38305 cumulative IPC: 0.37233 (Simulation time: 0 hr 17 min 56 sec) 
Heartbeat CPU  0 instructions:  573000001 cycles: 1377189712 heartbeat IPC: 0.41701 cumulative IPC: 0.37241 (Simulation time: 0 hr 17 min 58 sec) 
Heartbeat CPU  0 instructions:  574000001 cycles: 1379877805 heartbeat IPC: 0.37201 cumulative IPC: 0.37241 (Simulation time: 0 hr 18 min 0 sec) 
Heartbeat CPU  0 instructions:  575000002 cycles: 1382429426 heartbeat IPC: 0.39191 cumulative IPC: 0.37245 (Simulation time: 0 hr 18 min 2 sec) 
Heartbeat CPU  0 instructions:  576000000 cycles: 1385044951 heartbeat IPC: 0.38233 cumulative IPC: 0.37247 (Simulation time: 0 hr 18 min 3 sec) 
Heartbeat CPU  0 instructions:  577000000 cycles: 1387617534 heartbeat IPC: 0.38871 cumulative IPC: 0.37250 (Simulation time: 0 hr 18 min 5 sec) 
Heartbeat CPU  0 instructions:  578000002 cycles: 1389880239 heartbeat IPC: 0.44195 cumulative IPC: 0.37262 (Simulation time: 0 hr 18 min 7 sec) 
Heartbeat CPU  0 instructions:  579000000 cycles: 1392668253 heartbeat IPC: 0.35868 cumulative IPC: 0.37259 (Simulation time: 0 hr 18 min 9 sec) 
Heartbeat CPU  0 instructions:  580000000 cycles: 1395468526 heartbeat IPC: 0.35711 cumulative IPC: 0.37256 (Simulation time: 0 hr 18 min 11 sec) 
Heartbeat CPU  0 instructions:  581000001 cycles: 1398190477 heartbeat IPC: 0.36738 cumulative IPC: 0.37255 (Simulation time: 0 hr 18 min 12 sec) 
Heartbeat CPU  0 instructions:  582000001 cycles: 1401080123 heartbeat IPC: 0.34606 cumulative IPC: 0.37249 (Simulation time: 0 hr 18 min 14 sec) 
Heartbeat CPU  0 instructions:  583000000 cycles: 1403925635 heartbeat IPC: 0.35143 cumulative IPC: 0.37244 (Simulation time: 0 hr 18 min 16 sec) 
Heartbeat CPU  0 instructions:  584000000 cycles: 1406573504 heartbeat IPC: 0.37766 cumulative IPC: 0.37245 (Simulation time: 0 hr 18 min 18 sec) 
Heartbeat CPU  0 instructions:  585000003 cycles: 1409159155 heartbeat IPC: 0.38675 cumulative IPC: 0.37248 (Simulation time: 0 hr 18 min 20 sec) 
Heartbeat CPU  0 instructions:  586000000 cycles: 1412035919 heartbeat IPC: 0.34761 cumulative IPC: 0.37243 (Simulation time: 0 hr 18 min 22 sec) 
Heartbeat CPU  0 instructions:  587000000 cycles: 1414708224 heartbeat IPC: 0.37421 cumulative IPC: 0.37243 (Simulation time: 0 hr 18 min 23 sec) 
Heartbeat CPU  0 instructions:  588000000 cycles: 1417475520 heartbeat IPC: 0.36136 cumulative IPC: 0.37241 (Simulation time: 0 hr 18 min 25 sec) 
Heartbeat CPU  0 instructions:  589000000 cycles: 1420246172 heartbeat IPC: 0.36093 cumulative IPC: 0.37238 (Simulation time: 0 hr 18 min 27 sec) 
Heartbeat CPU  0 instructions:  590000001 cycles: 1422649355 heartbeat IPC: 0.41612 cumulative IPC: 0.37246 (Simulation time: 0 hr 18 min 29 sec) 
Heartbeat CPU  0 instructions:  591000003 cycles: 1425281779 heartbeat IPC: 0.37988 cumulative IPC: 0.37248 (Simulation time: 0 hr 18 min 31 sec) 
Heartbeat CPU  0 instructions:  592000000 cycles: 1428041005 heartbeat IPC: 0.36242 cumulative IPC: 0.37246 (Simulation time: 0 hr 18 min 33 sec) 
Heartbeat CPU  0 instructions:  593000000 cycles: 1430744359 heartbeat IPC: 0.36991 cumulative IPC: 0.37245 (Simulation time: 0 hr 18 min 34 sec) 
Heartbeat CPU  0 instructions:  594000000 cycles: 1432959993 heartbeat IPC: 0.45134 cumulative IPC: 0.37258 (Simulation time: 0 hr 18 min 36 sec) 
Heartbeat CPU  0 instructions:  595000001 cycles: 1435475825 heartbeat IPC: 0.39748 cumulative IPC: 0.37263 (Simulation time: 0 hr 18 min 38 sec) 
Heartbeat CPU  0 instructions:  596000000 cycles: 1438263108 heartbeat IPC: 0.35877 cumulative IPC: 0.37260 (Simulation time: 0 hr 18 min 40 sec) 
Heartbeat CPU  0 instructions:  597000000 cycles: 1441137108 heartbeat IPC: 0.34795 cumulative IPC: 0.37255 (Simulation time: 0 hr 18 min 41 sec) 
Heartbeat CPU  0 instructions:  598000000 cycles: 1443677641 heartbeat IPC: 0.39362 cumulative IPC: 0.37259 (Simulation time: 0 hr 18 min 43 sec) 
Heartbeat CPU  0 instructions:  599000000 cycles: 1446554559 heartbeat IPC: 0.34759 cumulative IPC: 0.37254 (Simulation time: 0 hr 18 min 45 sec) 
Heartbeat CPU  0 instructions:  600000000 cycles: 1448948686 heartbeat IPC: 0.41769 cumulative IPC: 0.37262 (Simulation time: 0 hr 18 min 47 sec) 
Finished CPU 0 instructions: 500000000 cycles: 1341864167 cumulative IPC: 0.37262 (Simulation time: 0 hr 18 min 47 sec) 

ChampSim completed all CPUs

[ROI Statistics]
Core_0_instructions 500000000
Core_0_cycles 1341864167
Core_0_IPC 0.37262

Core_0_branch_prediction_accuracy 85.18932
Core_0_branch_MPKI 24.43069
Core_0_average_ROB_occupancy_at_mispredict 38.24722

Core_0_L1D_total_access 155793272
Core_0_L1D_total_hit 153477641
Core_0_L1D_total_miss 2315631
Core_0_L1D_loads 89921562
Core_0_L1D_load_hit 89092023
Core_0_L1D_load_miss 829539
Core_0_L1D_RFOs 65871710
Core_0_L1D_RFO_hit 64385618
Core_0_L1D_RFO_miss 1486092
Core_0_L1D_prefetches 0
Core_0_L1D_prefetch_hit 0
Core_0_L1D_prefetch_miss 0
Core_0_L1D_writebacks 0
Core_0_L1D_writeback_hit 0
Core_0_L1D_writeback_miss 0
Core_0_L1D_prefetch_requested 0
Core_0_L1D_prefetch_dropped 0
Core_0_L1D_prefetch_issued 0
Core_0_L1D_prefetch_filled 0
Core_0_L1D_prefetch_useful 0
Core_0_L1D_prefetch_useless 0
Core_0_L1D_prefetch_late 0
Core_0_L1D_average_miss_latency 442.62552

Core_0_L1D_rq_access 125889399
Core_0_L1D_rq_forward 0
Core_0_L1D_rq_merged 35877221
Core_0_L1D_rq_to_cache 90011377
Core_0_L1D_rq_full 0

Core_0_L1D_wq_access 70505122
Core_0_L1D_wq_forward 801
Core_0_L1D_wq_merged 423383
Core_0_L1D_wq_to_cache 70081739
Core_0_L1D_wq_full 51954172

Core_0_L1D_pq_access 0
Core_0_L1D_pq_forward 0
Core_0_L1D_pq_merged 0
Core_0_L1D_pq_to_cache 0
Core_0_L1D_pq_full 0

Core_0_L1D_acc_epochs 1412736
Core_0_L1D_acc_level_0 1412736
Core_0_L1D_acc_level_1 0
Core_0_L1D_acc_level_2 0
Core_0_L1D_acc_level_3 0
Core_0_L1D_acc_level_4 0
Core_0_L1D_acc_level_5 0
Core_0_L1D_acc_level_6 0
Core_0_L1D_acc_level_7 0
Core_0_L1D_acc_level_8 0
Core_0_L1D_acc_level_9 0

Core_0_L1I_total_access 99898838
Core_0_L1I_total_hit 97953892
Core_0_L1I_total_miss 1944946
Core_0_L1I_loads 99898838
Core_0_L1I_load_hit 97953892
Core_0_L1I_load_miss 1944946
Core_0_L1I_RFOs 0
Core_0_L1I_RFO_hit 0
Core_0_L1I_RFO_miss 0
Core_0_L1I_prefetches 0
Core_0_L1I_prefetch_hit 0
Core_0_L1I_prefetch_miss 0
Core_0_L1I_writebacks 0
Core_0_L1I_writeback_hit 0
Core_0_L1I_writeback_miss 0
Core_0_L1I_prefetch_requested 0
Core_0_L1I_prefetch_dropped 0
Core_0_L1I_prefetch_issued 0
Core_0_L1I_prefetch_filled 0
Core_0_L1I_prefetch_useful 0
Core_0_L1I_prefetch_useless 0
Core_0_L1I_prefetch_late 0
Core_0_L1I_average_miss_latency 12.31635

Core_0_L1I_rq_access 499999934
Core_0_L1I_rq_forward 0
Core_0_L1I_rq_merged 399388275
Core_0_L1I_rq_to_cache 100611659
Core_0_L1I_rq_full 0

Core_0_L1I_wq_access 0
Core_0_L1I_wq_forward 0
Core_0_L1I_wq_merged 0
Core_0_L1I_wq_to_cache 0
Core_0_L1I_wq_full 0

Core_0_L1I_pq_access 0
Core_0_L1I_pq_forward 0
Core_0_L1I_pq_merged 0
Core_0_L1I_pq_to_cache 0
Core_0_L1I_pq_full 0

Core_0_L1I_acc_epochs 1412736
Core_0_L1I_acc_level_0 1412736
Core_0_L1I_acc_level_1 0
Core_0_L1I_acc_level_2 0
Core_0_L1I_acc_level_3 0
Core_0_L1I_acc_level_4 0
Core_0_L1I_acc_level_5 0
Core_0_L1I_acc_level_6 0
Core_0_L1I_acc_level_7 0
Core_0_L1I_acc_level_8 0
Core_0_L1I_acc_level_9 0

Core_0_L2C_total_access 6573538
Core_0_L2C_total_hit 5196568
Core_0_L2C_total_miss 1376970
Core_0_L2C_loads 2774462
Core_0_L2C_load_hit 2538059
Core_0_L2C_load_miss 236403
Core_0_L2C_RFOs 1486048
Core_0_L2C_RFO_hit 602805
Core_0_L2C_RFO_miss 883243
Core_0_L2C_prefetches 558847
Core_0_L2C_prefetch_hit 304021
Core_0_L2C_prefetch_miss 254826
Core_0_L2C_writebacks 1754181
Core_0_L2C_writeback_hit 1751683
Core_0_L2C_writeback_miss 2498
Core_0_L2C_prefetch_requested 1392867
Core_0_L2C_prefetch_dropped 0
Core_0_L2C_prefetch_issued 1392867
Core_0_L2C_prefetch_filled 286287
Core_0_L2C_prefetch_useful 240556
Core_0_L2C_prefetch_useless 45491
Core_0_L2C_prefetch_late 7791
Core_0_L2C_average_miss_latency 743.16330

Core_0_L2C_rq_access 4260577
Core_0_L2C_rq_forward 0
Core_0_L2C_rq_merged 0
Core_0_L2C_rq_to_cache 4260510
Core_0_L2C_rq_full 0

Core_0_L2C_wq_access 1754181
Core_0_L2C_wq_forward 67
Core_0_L2C_wq_merged 0
Core_0_L2C_wq_to_cache 1754181
Core_0_L2C_wq_full 0

Core_0_L2C_pq_access 1392867
Core_0_L2C_pq_forward 0
Core_0_L2C_pq_merged 0
Core_0_L2C_pq_to_cache 1392867
Core_0_L2C_pq_full 0

Core_0_L2C_acc_epochs 1412736
Core_0_L2C_acc_level_0 1371111
Core_0_L2C_acc_level_1 13206
Core_0_L2C_acc_level_2 9199
Core_0_L2C_acc_level_3 3025
Core_0_L2C_acc_level_4 1533
Core_0_L2C_acc_level_5 6341
Core_0_L2C_acc_level_6 1144
Core_0_L2C_acc_level_7 1083
Core_0_L2C_acc_level_8 729
Core_0_L2C_acc_level_9 5365

Core_0_LLC_total_access 3082614
Core_0_LLC_total_hit 1131893
Core_0_LLC_total_miss 1950721
Core_0_LLC_loads 228721
Core_0_LLC_load_hit 149929
Core_0_LLC_load_miss 78792
Core_0_LLC_RFOs 883233
Core_0_LLC_RFO_hit 132298
Core_0_LLC_RFO_miss 750935
Core_0_LLC_prefetches 937178
Core_0_LLC_prefetch_hit 495721
Core_0_LLC_prefetch_miss 441457
Core_0_LLC_writebacks 1033482
Core_0_LLC_writeback_hit 353945
Core_0_LLC_writeback_miss 679537
Core_0_LLC_prefetch_requested 0
Core_0_LLC_prefetch_dropped 0
Core_0_LLC_prefetch_issued 0
Core_0_LLC_prefetch_filled 499906
Core_0_LLC_prefetch_useful 47920
Core_0_LLC_prefetch_useless 437711
Core_0_LLC_prefetch_late 137
Core_0_LLC_average_miss_latency 567.97654

Core_0_LLC_rq_access 1111958
Core_0_LLC_rq_forward 0
Core_0_LLC_rq_merged 0
Core_0_LLC_rq_to_cache 1111954
Core_0_LLC_rq_full 0

Core_0_LLC_wq_access 1033482
Core_0_LLC_wq_forward 6
Core_0_LLC_wq_merged 0
Core_0_LLC_wq_to_cache 1033482
Core_0_LLC_wq_full 0

Core_0_LLC_pq_access 1027907
Core_0_LLC_pq_forward 0
Core_0_LLC_pq_merged 0
Core_0_LLC_pq_to_cache 1027905
Core_0_LLC_pq_full 0

Core_0_LLC_acc_epochs 1414989
Core_0_LLC_acc_level_0 1381593
Core_0_LLC_acc_level_1 19366
Core_0_LLC_acc_level_2 8500
Core_0_LLC_acc_level_3 745
Core_0_LLC_acc_level_4 29
Core_0_LLC_acc_level_5 4130
Core_0_LLC_acc_level_6 31
Core_0_LLC_acc_level_7 63
Core_0_LLC_acc_level_8 6
Core_0_LLC_acc_level_9 526

Core_0_major_page_fault 0
Core_0_minor_page_fault 6639

[Bingo] PHT Access: 195788
[Bingo] PHT Hit PC+Addr: 64289
[Bingo] PHT Hit PC+Offs: 111034
[Bingo] PHT Miss: 20465
[Bingo] Prefetch PC+Addr: 0
[Bingo] Prefetch PC+Offs: 0
[Bingo] Useful PC+Addr: 0
[Bingo] Useful PC+Offs: 0
[Bingo] Useless PC+Addr: 0
[Bingo] Useless PC+Offs: 0
[Bingo] L1 Prefetch per Region: 0.00000
[Bingo] L2 Prefetch per Region: 4.60333
[Bingo] L3 Prefetch per Region: 4.34870
[Bingo] No Prefetch per Region: 23.04797
[Bingo] Number of Voters Mean: 6.50624
[Bingo] Number of Voters SD: 3.88983

Channel_0_RQ_row_buffer_hit 341559
Channel_0_RQ_row_buffer_miss 929621
Channel_0_WQ_row_buffer_hit 116149
Channel_0_WQ_row_buffer_miss 756703
Channel_0_WQ_full 68
Channel_0_dbus_congested 1867203

avg_congested_cycle 24

DRAM_bw_pochs 5659956
DRAM_bw_level_0 5345604
DRAM_bw_level_1 122307
DRAM_bw_level_2 84138
DRAM_bw_level_3 107907
