*************************************************
   ChampSim Multicore Out-of-Order Simulator
   Last compiled: Dec 11 2024 17:59:53
*************************************************
parsing config file: /home/functionmain/桌面/Pythia/config/bingo.ini

trace_0 /home/functionmain/桌面/Pythia/traces/445.gobmk-36B.champsimtrace.xz
adding L2C_PREFETCHER: Bingo
Initialize SHIP state
warmup_instructions 100000000
simulation_instructions 500000000
champsim_seed 171
measure_ipc 0
measure_ipc_epoch 1000
measure_dram_bw 1
measure_dram_bw_epoch 256
measure_cache_acc 1
measure_cache_acc_epoch 1024
l1d_perfect 0
l2c_perfect 0
llc_perfect 0
l1d_semi_perfect 0
l2c_semi_perfect 0
llc_semi_perfect 0
semi_perfect_cache_page_buffer_size 64

num_cpus 1
cpu_freq 4000
dram_io_freq 300
page_size 4096
block_size 64
max_read_per_cycle 8
max_fill_per_cycle 1
dram_channels 1
log2_dram_channels 0
dram_ranks 1
dram_banks 8
dram_rows 65536
dram_columns 128
dram_row_size 8
dram_size 4096
dram_pages 1048576

fetch_width 6
decode_width 6
exec_width 4
lq_width 2
sq_width 2
retire_width 4
scheduler_size 128
branch_mispredict_penalty 20
rob_size 256
lq_size 72
sq_size 56
num_instr_destinations_sparc 4
num_instr_destinations 2
num_instr_sources 4

itlb_set 16
itlb_way 8
itlb_rq_size 16
itlb_wq_size 16
itlb_pq_size 0
itlb_mshr_size 8
itlb_latency 1

dtlb_set 16
dtlb_way 4
dtlb_rq_size 16
dtlb_wq_size 16
dtlb_pq_size 0
dtlb_mshr_size 8
dtlb_latency 1

stlb_set 128
stlb_way 12
stlb_rq_size 32
stlb_wq_size 32
stlb_pq_size 0
stlb_mshr_size 16
stlb_latency 8

l1i_size 32
l1i_set 64
l1i_way 8
l1i_rq_size 64
l1i_wq_size 64
l1i_pq_size 8
l1i_mshr_size 8
l1i_latency 1

l1d_size 32
l1d_set 64
l1d_way 8
l1d_rq_size 64
l1d_wq_size 64
l1d_pq_size 8
l1d_mshr_size 16
l1d_latency 4

l2c_size 256
l2c_set 512
l2c_way 8
l2c_rq_size 32
l2c_wq_size 32
l2c_pq_size 32
l2c_mshr_size 32
l2c_latency 10

llc_size 2048
llc_set 2048
llc_way 16
llc_rq_size 32
llc_wq_size 32
llc_pq_size 32
llc_mshr_size 64
llc_latency 20

dram_channel_width 8
dram_wq_size 64
dram_rq_size 64
tRP 15
tRCD 15
tCAS 12.5
dram_dbus_turn_around_time 30
dram_write_high_wm 56
dram_write_low_wm 48
min_dram_writes_per_switch 16
dram_mtps 300
dram_dbus_return_time 106

bingo_region_size 2048
bingo_pattern_len 32
bingo_pc_width 16
bingo_min_addr_width 5
bingo_max_addr_width 16
bingo_ft_size 64
bingo_at_size 128
bingo_pht_size 4096
bingo_pht_ways 16
bingo_pf_streamer_size 128
bingo_debug_level 0
bingo_l1d_thresh 1.01
bingo_l2c_thresh 0.8
bingo_llc_thresh 0.05
bingo_pc_address_fill_level L2


Heartbeat CPU  0 instructions:    1000000 cycles:    1143434 heartbeat IPC: 0.87456 cumulative IPC: 0.87456 (Simulation time: 0 hr 0 min 1 sec) 
Heartbeat CPU  0 instructions:    2000000 cycles:    2306974 heartbeat IPC: 0.85945 cumulative IPC: 0.86694 (Simulation time: 0 hr 0 min 2 sec) 
Heartbeat CPU  0 instructions:    3000000 cycles:    3459370 heartbeat IPC: 0.86776 cumulative IPC: 0.86721 (Simulation time: 0 hr 0 min 3 sec) 
Heartbeat CPU  0 instructions:    4000000 cycles:    4510733 heartbeat IPC: 0.95115 cumulative IPC: 0.88677 (Simulation time: 0 hr 0 min 5 sec) 
Heartbeat CPU  0 instructions:    5000001 cycles:    5594467 heartbeat IPC: 0.92274 cumulative IPC: 0.89374 (Simulation time: 0 hr 0 min 6 sec) 
Heartbeat CPU  0 instructions:    6000000 cycles:    6675423 heartbeat IPC: 0.92511 cumulative IPC: 0.89882 (Simulation time: 0 hr 0 min 7 sec) 
Heartbeat CPU  0 instructions:    7000002 cycles:    7776649 heartbeat IPC: 0.90808 cumulative IPC: 0.90013 (Simulation time: 0 hr 0 min 8 sec) 
Heartbeat CPU  0 instructions:    8000000 cycles:    8891553 heartbeat IPC: 0.89694 cumulative IPC: 0.89973 (Simulation time: 0 hr 0 min 9 sec) 
Heartbeat CPU  0 instructions:    9000002 cycles:   10003258 heartbeat IPC: 0.89952 cumulative IPC: 0.89971 (Simulation time: 0 hr 0 min 10 sec) 
Heartbeat CPU  0 instructions:   10000000 cycles:   10942605 heartbeat IPC: 1.06457 cumulative IPC: 0.91386 (Simulation time: 0 hr 0 min 12 sec) 
Heartbeat CPU  0 instructions:   11000002 cycles:   11926506 heartbeat IPC: 1.01636 cumulative IPC: 0.92232 (Simulation time: 0 hr 0 min 13 sec) 
Heartbeat CPU  0 instructions:   12000000 cycles:   13064800 heartbeat IPC: 0.87851 cumulative IPC: 0.91850 (Simulation time: 0 hr 0 min 14 sec) 
Heartbeat CPU  0 instructions:   13000001 cycles:   14085545 heartbeat IPC: 0.97968 cumulative IPC: 0.92293 (Simulation time: 0 hr 0 min 15 sec) 
Heartbeat CPU  0 instructions:   14000001 cycles:   15202448 heartbeat IPC: 0.89533 cumulative IPC: 0.92090 (Simulation time: 0 hr 0 min 16 sec) 
Heartbeat CPU  0 instructions:   15000003 cycles:   16231971 heartbeat IPC: 0.97133 cumulative IPC: 0.92410 (Simulation time: 0 hr 0 min 17 sec) 
Heartbeat CPU  0 instructions:   16000000 cycles:   17274232 heartbeat IPC: 0.95945 cumulative IPC: 0.92624 (Simulation time: 0 hr 0 min 19 sec) 
Heartbeat CPU  0 instructions:   17000001 cycles:   18299095 heartbeat IPC: 0.97574 cumulative IPC: 0.92901 (Simulation time: 0 hr 0 min 20 sec) 
Heartbeat CPU  0 instructions:   18000001 cycles:   19403052 heartbeat IPC: 0.90583 cumulative IPC: 0.92769 (Simulation time: 0 hr 0 min 21 sec) 
Heartbeat CPU  0 instructions:   19000003 cycles:   20431391 heartbeat IPC: 0.97244 cumulative IPC: 0.92994 (Simulation time: 0 hr 0 min 22 sec) 
Heartbeat CPU  0 instructions:   20000000 cycles:   21405213 heartbeat IPC: 1.02688 cumulative IPC: 0.93435 (Simulation time: 0 hr 0 min 23 sec) 
Heartbeat CPU  0 instructions:   21000002 cycles:   22409256 heartbeat IPC: 0.99598 cumulative IPC: 0.93711 (Simulation time: 0 hr 0 min 24 sec) 
Heartbeat CPU  0 instructions:   22000002 cycles:   23400752 heartbeat IPC: 1.00858 cumulative IPC: 0.94014 (Simulation time: 0 hr 0 min 26 sec) 
Heartbeat CPU  0 instructions:   23000000 cycles:   24440000 heartbeat IPC: 0.96223 cumulative IPC: 0.94108 (Simulation time: 0 hr 0 min 27 sec) 
Heartbeat CPU  0 instructions:   24000000 cycles:   25395787 heartbeat IPC: 1.04626 cumulative IPC: 0.94504 (Simulation time: 0 hr 0 min 28 sec) 
Heartbeat CPU  0 instructions:   25000000 cycles:   26453751 heartbeat IPC: 0.94521 cumulative IPC: 0.94505 (Simulation time: 0 hr 0 min 29 sec) 
Heartbeat CPU  0 instructions:   26000001 cycles:   27516061 heartbeat IPC: 0.94135 cumulative IPC: 0.94490 (Simulation time: 0 hr 0 min 30 sec) 
Heartbeat CPU  0 instructions:   27000001 cycles:   28503388 heartbeat IPC: 1.01284 cumulative IPC: 0.94726 (Simulation time: 0 hr 0 min 32 sec) 
Heartbeat CPU  0 instructions:   28000000 cycles:   29565292 heartbeat IPC: 0.94170 cumulative IPC: 0.94706 (Simulation time: 0 hr 0 min 33 sec) 
Heartbeat CPU  0 instructions:   29000002 cycles:   30602028 heartbeat IPC: 0.96457 cumulative IPC: 0.94765 (Simulation time: 0 hr 0 min 34 sec) 
Heartbeat CPU  0 instructions:   30000001 cycles:   31599313 heartbeat IPC: 1.00272 cumulative IPC: 0.94939 (Simulation time: 0 hr 0 min 35 sec) 
Heartbeat CPU  0 instructions:   31000002 cycles:   32708802 heartbeat IPC: 0.90132 cumulative IPC: 0.94776 (Simulation time: 0 hr 0 min 36 sec) 
Heartbeat CPU  0 instructions:   32000000 cycles:   33757673 heartbeat IPC: 0.95340 cumulative IPC: 0.94793 (Simulation time: 0 hr 0 min 38 sec) 
Heartbeat CPU  0 instructions:   33000000 cycles:   34824505 heartbeat IPC: 0.93735 cumulative IPC: 0.94761 (Simulation time: 0 hr 0 min 39 sec) 
Heartbeat CPU  0 instructions:   34000000 cycles:   35870703 heartbeat IPC: 0.95584 cumulative IPC: 0.94785 (Simulation time: 0 hr 0 min 40 sec) 
Heartbeat CPU  0 instructions:   35000003 cycles:   36866516 heartbeat IPC: 1.00421 cumulative IPC: 0.94937 (Simulation time: 0 hr 0 min 41 sec) 
Heartbeat CPU  0 instructions:   36000000 cycles:   37962466 heartbeat IPC: 0.91245 cumulative IPC: 0.94831 (Simulation time: 0 hr 0 min 42 sec) 
Heartbeat CPU  0 instructions:   37000003 cycles:   39023413 heartbeat IPC: 0.94256 cumulative IPC: 0.94815 (Simulation time: 0 hr 0 min 43 sec) 
Heartbeat CPU  0 instructions:   38000002 cycles:   40046137 heartbeat IPC: 0.97778 cumulative IPC: 0.94891 (Simulation time: 0 hr 0 min 45 sec) 
Heartbeat CPU  0 instructions:   39000003 cycles:   41098762 heartbeat IPC: 0.95001 cumulative IPC: 0.94893 (Simulation time: 0 hr 0 min 46 sec) 
Heartbeat CPU  0 instructions:   40000000 cycles:   42174342 heartbeat IPC: 0.92973 cumulative IPC: 0.94844 (Simulation time: 0 hr 0 min 47 sec) 
Heartbeat CPU  0 instructions:   41000003 cycles:   43296366 heartbeat IPC: 0.89125 cumulative IPC: 0.94696 (Simulation time: 0 hr 0 min 48 sec) 
Heartbeat CPU  0 instructions:   42000001 cycles:   44325955 heartbeat IPC: 0.97126 cumulative IPC: 0.94753 (Simulation time: 0 hr 0 min 49 sec) 
Heartbeat CPU  0 instructions:   43000002 cycles:   45345455 heartbeat IPC: 0.98087 cumulative IPC: 0.94828 (Simulation time: 0 hr 0 min 50 sec) 
Heartbeat CPU  0 instructions:   44000000 cycles:   46428844 heartbeat IPC: 0.92303 cumulative IPC: 0.94769 (Simulation time: 0 hr 0 min 52 sec) 
Heartbeat CPU  0 instructions:   45000001 cycles:   47543549 heartbeat IPC: 0.89710 cumulative IPC: 0.94650 (Simulation time: 0 hr 0 min 53 sec) 
Heartbeat CPU  0 instructions:   46000002 cycles:   48600772 heartbeat IPC: 0.94588 cumulative IPC: 0.94649 (Simulation time: 0 hr 0 min 54 sec) 
Heartbeat CPU  0 instructions:   47000003 cycles:   49567841 heartbeat IPC: 1.03405 cumulative IPC: 0.94820 (Simulation time: 0 hr 0 min 55 sec) 
Heartbeat CPU  0 instructions:   48000000 cycles:   50569483 heartbeat IPC: 0.99836 cumulative IPC: 0.94919 (Simulation time: 0 hr 0 min 56 sec) 
Heartbeat CPU  0 instructions:   49000000 cycles:   51625986 heartbeat IPC: 0.94652 cumulative IPC: 0.94913 (Simulation time: 0 hr 0 min 58 sec) 
Heartbeat CPU  0 instructions:   50000001 cycles:   52671765 heartbeat IPC: 0.95623 cumulative IPC: 0.94928 (Simulation time: 0 hr 0 min 59 sec) 
Heartbeat CPU  0 instructions:   51000001 cycles:   53720652 heartbeat IPC: 0.95339 cumulative IPC: 0.94936 (Simulation time: 0 hr 1 min 0 sec) 
Heartbeat CPU  0 instructions:   52000000 cycles:   54788263 heartbeat IPC: 0.93667 cumulative IPC: 0.94911 (Simulation time: 0 hr 1 min 1 sec) 
Heartbeat CPU  0 instructions:   53000000 cycles:   55895428 heartbeat IPC: 0.90321 cumulative IPC: 0.94820 (Simulation time: 0 hr 1 min 2 sec) 
Heartbeat CPU  0 instructions:   54000003 cycles:   57012754 heartbeat IPC: 0.89500 cumulative IPC: 0.94716 (Simulation time: 0 hr 1 min 4 sec) 
Heartbeat CPU  0 instructions:   55000003 cycles:   58100665 heartbeat IPC: 0.91919 cumulative IPC: 0.94663 (Simulation time: 0 hr 1 min 5 sec) 
Heartbeat CPU  0 instructions:   56000000 cycles:   59161291 heartbeat IPC: 0.94284 cumulative IPC: 0.94656 (Simulation time: 0 hr 1 min 6 sec) 
Heartbeat CPU  0 instructions:   57000000 cycles:   60267436 heartbeat IPC: 0.90404 cumulative IPC: 0.94578 (Simulation time: 0 hr 1 min 7 sec) 
Heartbeat CPU  0 instructions:   58000000 cycles:   61311538 heartbeat IPC: 0.95776 cumulative IPC: 0.94599 (Simulation time: 0 hr 1 min 8 sec) 
Heartbeat CPU  0 instructions:   59000003 cycles:   62422089 heartbeat IPC: 0.90046 cumulative IPC: 0.94518 (Simulation time: 0 hr 1 min 10 sec) 
Heartbeat CPU  0 instructions:   60000000 cycles:   63490915 heartbeat IPC: 0.93560 cumulative IPC: 0.94502 (Simulation time: 0 hr 1 min 11 sec) 
Heartbeat CPU  0 instructions:   61000001 cycles:   64631453 heartbeat IPC: 0.87678 cumulative IPC: 0.94381 (Simulation time: 0 hr 1 min 12 sec) 
Heartbeat CPU  0 instructions:   62000001 cycles:   65681456 heartbeat IPC: 0.95238 cumulative IPC: 0.94395 (Simulation time: 0 hr 1 min 13 sec) 
Heartbeat CPU  0 instructions:   63000000 cycles:   66732603 heartbeat IPC: 0.95134 cumulative IPC: 0.94407 (Simulation time: 0 hr 1 min 14 sec) 
Heartbeat CPU  0 instructions:   64000000 cycles:   67805446 heartbeat IPC: 0.93210 cumulative IPC: 0.94388 (Simulation time: 0 hr 1 min 15 sec) 
Heartbeat CPU  0 instructions:   65000000 cycles:   68886894 heartbeat IPC: 0.92469 cumulative IPC: 0.94358 (Simulation time: 0 hr 1 min 17 sec) 
Heartbeat CPU  0 instructions:   66000000 cycles:   69977913 heartbeat IPC: 0.91657 cumulative IPC: 0.94315 (Simulation time: 0 hr 1 min 18 sec) 
Heartbeat CPU  0 instructions:   67000000 cycles:   71009197 heartbeat IPC: 0.96966 cumulative IPC: 0.94354 (Simulation time: 0 hr 1 min 19 sec) 
Heartbeat CPU  0 instructions:   68000000 cycles:   72064871 heartbeat IPC: 0.94726 cumulative IPC: 0.94359 (Simulation time: 0 hr 1 min 20 sec) 
Heartbeat CPU  0 instructions:   69000003 cycles:   73152904 heartbeat IPC: 0.91909 cumulative IPC: 0.94323 (Simulation time: 0 hr 1 min 21 sec) 
Heartbeat CPU  0 instructions:   70000001 cycles:   74334273 heartbeat IPC: 0.84647 cumulative IPC: 0.94169 (Simulation time: 0 hr 1 min 23 sec) 
Heartbeat CPU  0 instructions:   71000001 cycles:   75352782 heartbeat IPC: 0.98183 cumulative IPC: 0.94223 (Simulation time: 0 hr 1 min 24 sec) 
Heartbeat CPU  0 instructions:   72000000 cycles:   76424646 heartbeat IPC: 0.93295 cumulative IPC: 0.94210 (Simulation time: 0 hr 1 min 25 sec) 
Heartbeat CPU  0 instructions:   73000002 cycles:   77552458 heartbeat IPC: 0.88667 cumulative IPC: 0.94130 (Simulation time: 0 hr 1 min 26 sec) 
Heartbeat CPU  0 instructions:   74000000 cycles:   78629306 heartbeat IPC: 0.92863 cumulative IPC: 0.94112 (Simulation time: 0 hr 1 min 27 sec) 
Heartbeat CPU  0 instructions:   75000001 cycles:   79707070 heartbeat IPC: 0.92785 cumulative IPC: 0.94095 (Simulation time: 0 hr 1 min 29 sec) 
Heartbeat CPU  0 instructions:   76000000 cycles:   80683821 heartbeat IPC: 1.02380 cumulative IPC: 0.94195 (Simulation time: 0 hr 1 min 30 sec) 
Heartbeat CPU  0 instructions:   77000001 cycles:   81772009 heartbeat IPC: 0.91896 cumulative IPC: 0.94164 (Simulation time: 0 hr 1 min 31 sec) 
Heartbeat CPU  0 instructions:   78000000 cycles:   82822270 heartbeat IPC: 0.95214 cumulative IPC: 0.94178 (Simulation time: 0 hr 1 min 32 sec) 
Heartbeat CPU  0 instructions:   79000000 cycles:   83935310 heartbeat IPC: 0.89844 cumulative IPC: 0.94120 (Simulation time: 0 hr 1 min 33 sec) 
Heartbeat CPU  0 instructions:   80000000 cycles:   84937552 heartbeat IPC: 0.99776 cumulative IPC: 0.94187 (Simulation time: 0 hr 1 min 34 sec) 
Heartbeat CPU  0 instructions:   81000003 cycles:   85954201 heartbeat IPC: 0.98363 cumulative IPC: 0.94236 (Simulation time: 0 hr 1 min 36 sec) 
Heartbeat CPU  0 instructions:   82000002 cycles:   87049872 heartbeat IPC: 0.91268 cumulative IPC: 0.94199 (Simulation time: 0 hr 1 min 37 sec) 
Heartbeat CPU  0 instructions:   83000001 cycles:   88143490 heartbeat IPC: 0.91440 cumulative IPC: 0.94165 (Simulation time: 0 hr 1 min 38 sec) 
Heartbeat CPU  0 instructions:   84000000 cycles:   89097013 heartbeat IPC: 1.04874 cumulative IPC: 0.94279 (Simulation time: 0 hr 1 min 39 sec) 
Heartbeat CPU  0 instructions:   85000001 cycles:   90237175 heartbeat IPC: 0.87707 cumulative IPC: 0.94196 (Simulation time: 0 hr 1 min 40 sec) 
Heartbeat CPU  0 instructions:   86000000 cycles:   91399995 heartbeat IPC: 0.85998 cumulative IPC: 0.94092 (Simulation time: 0 hr 1 min 42 sec) 
Heartbeat CPU  0 instructions:   87000000 cycles:   92497788 heartbeat IPC: 0.91092 cumulative IPC: 0.94056 (Simulation time: 0 hr 1 min 43 sec) 
Heartbeat CPU  0 instructions:   88000000 cycles:   93591956 heartbeat IPC: 0.91394 cumulative IPC: 0.94025 (Simulation time: 0 hr 1 min 44 sec) 
Heartbeat CPU  0 instructions:   89000001 cycles:   94734313 heartbeat IPC: 0.87538 cumulative IPC: 0.93947 (Simulation time: 0 hr 1 min 45 sec) 
Heartbeat CPU  0 instructions:   90000000 cycles:   95868771 heartbeat IPC: 0.88148 cumulative IPC: 0.93878 (Simulation time: 0 hr 1 min 46 sec) 
Heartbeat CPU  0 instructions:   91000000 cycles:   97034050 heartbeat IPC: 0.85816 cumulative IPC: 0.93782 (Simulation time: 0 hr 1 min 47 sec) 
Heartbeat CPU  0 instructions:   92000000 cycles:   98069314 heartbeat IPC: 0.96594 cumulative IPC: 0.93811 (Simulation time: 0 hr 1 min 49 sec) 
Heartbeat CPU  0 instructions:   93000003 cycles:   99033362 heartbeat IPC: 1.03730 cumulative IPC: 0.93908 (Simulation time: 0 hr 1 min 50 sec) 
Heartbeat CPU  0 instructions:   94000003 cycles:  100162296 heartbeat IPC: 0.88579 cumulative IPC: 0.93848 (Simulation time: 0 hr 1 min 51 sec) 
Heartbeat CPU  0 instructions:   95000000 cycles:  101215316 heartbeat IPC: 0.94965 cumulative IPC: 0.93859 (Simulation time: 0 hr 1 min 52 sec) 
Heartbeat CPU  0 instructions:   96000000 cycles:  102305371 heartbeat IPC: 0.91738 cumulative IPC: 0.93837 (Simulation time: 0 hr 1 min 53 sec) 
Heartbeat CPU  0 instructions:   97000000 cycles:  103422889 heartbeat IPC: 0.89484 cumulative IPC: 0.93790 (Simulation time: 0 hr 1 min 55 sec) 
Heartbeat CPU  0 instructions:   98000001 cycles:  104415234 heartbeat IPC: 1.00772 cumulative IPC: 0.93856 (Simulation time: 0 hr 1 min 56 sec) 
Heartbeat CPU  0 instructions:   99000000 cycles:  105443373 heartbeat IPC: 0.97263 cumulative IPC: 0.93889 (Simulation time: 0 hr 1 min 57 sec) 
Heartbeat CPU  0 instructions:  100000000 cycles:  106500391 heartbeat IPC: 0.94606 cumulative IPC: 0.93896 (Simulation time: 0 hr 1 min 58 sec) 

Warmup complete CPU  0 instructions:  100000001 cycles:  106500393 (Simulation time: 0 hr 1 min 58 sec) 

Heartbeat CPU  0 instructions:  101000000 cycles:  109303568 heartbeat IPC: 0.35674 cumulative IPC: 0.35674 (Simulation time: 0 hr 2 min 0 sec) 
Heartbeat CPU  0 instructions:  102000001 cycles:  111984906 heartbeat IPC: 0.37295 cumulative IPC: 0.36466 (Simulation time: 0 hr 2 min 2 sec) 
Heartbeat CPU  0 instructions:  103000003 cycles:  114598825 heartbeat IPC: 0.38257 cumulative IPC: 0.37044 (Simulation time: 0 hr 2 min 4 sec) 
Heartbeat CPU  0 instructions:  104000000 cycles:  117127754 heartbeat IPC: 0.39542 cumulative IPC: 0.37639 (Simulation time: 0 hr 2 min 6 sec) 
Heartbeat CPU  0 instructions:  105000000 cycles:  119952332 heartbeat IPC: 0.35404 cumulative IPC: 0.37169 (Simulation time: 0 hr 2 min 8 sec) 
Heartbeat CPU  0 instructions:  106000000 cycles:  122664734 heartbeat IPC: 0.36868 cumulative IPC: 0.37119 (Simulation time: 0 hr 2 min 9 sec) 
Heartbeat CPU  0 instructions:  107000001 cycles:  125276833 heartbeat IPC: 0.38283 cumulative IPC: 0.37281 (Simulation time: 0 hr 2 min 11 sec) 
Heartbeat CPU  0 instructions:  108000000 cycles:  127960262 heartbeat IPC: 0.37266 cumulative IPC: 0.37279 (Simulation time: 0 hr 2 min 13 sec) 
Heartbeat CPU  0 instructions:  109000002 cycles:  130649969 heartbeat IPC: 0.37179 cumulative IPC: 0.37268 (Simulation time: 0 hr 2 min 15 sec) 
Heartbeat CPU  0 instructions:  110000002 cycles:  133333086 heartbeat IPC: 0.37270 cumulative IPC: 0.37268 (Simulation time: 0 hr 2 min 17 sec) 
Heartbeat CPU  0 instructions:  111000000 cycles:  135925797 heartbeat IPC: 0.38570 cumulative IPC: 0.37383 (Simulation time: 0 hr 2 min 19 sec) 
Heartbeat CPU  0 instructions:  112000000 cycles:  138707986 heartbeat IPC: 0.35943 cumulative IPC: 0.37258 (Simulation time: 0 hr 2 min 21 sec) 
Heartbeat CPU  0 instructions:  113000000 cycles:  141322655 heartbeat IPC: 0.38246 cumulative IPC: 0.37332 (Simulation time: 0 hr 2 min 23 sec) 
Heartbeat CPU  0 instructions:  114000000 cycles:  144169882 heartbeat IPC: 0.35122 cumulative IPC: 0.37165 (Simulation time: 0 hr 2 min 25 sec) 
Heartbeat CPU  0 instructions:  115000003 cycles:  146912264 heartbeat IPC: 0.36465 cumulative IPC: 0.37118 (Simulation time: 0 hr 2 min 27 sec) 
Heartbeat CPU  0 instructions:  116000000 cycles:  149621000 heartbeat IPC: 0.36917 cumulative IPC: 0.37105 (Simulation time: 0 hr 2 min 29 sec) 
Heartbeat CPU  0 instructions:  117000001 cycles:  152278318 heartbeat IPC: 0.37632 cumulative IPC: 0.37136 (Simulation time: 0 hr 2 min 30 sec) 
Heartbeat CPU  0 instructions:  118000000 cycles:  154927913 heartbeat IPC: 0.37742 cumulative IPC: 0.37169 (Simulation time: 0 hr 2 min 32 sec) 
Heartbeat CPU  0 instructions:  119000001 cycles:  157747220 heartbeat IPC: 0.35470 cumulative IPC: 0.37075 (Simulation time: 0 hr 2 min 34 sec) 
Heartbeat CPU  0 instructions:  120000000 cycles:  160430180 heartbeat IPC: 0.37272 cumulative IPC: 0.37085 (Simulation time: 0 hr 2 min 36 sec) 
Heartbeat CPU  0 instructions:  121000000 cycles:  163205313 heartbeat IPC: 0.36034 cumulative IPC: 0.37034 (Simulation time: 0 hr 2 min 38 sec) 
Heartbeat CPU  0 instructions:  122000001 cycles:  165927471 heartbeat IPC: 0.36736 cumulative IPC: 0.37020 (Simulation time: 0 hr 2 min 40 sec) 
Heartbeat CPU  0 instructions:  123000000 cycles:  168574051 heartbeat IPC: 0.37785 cumulative IPC: 0.37053 (Simulation time: 0 hr 2 min 42 sec) 
Heartbeat CPU  0 instructions:  124000000 cycles:  171304703 heartbeat IPC: 0.36621 cumulative IPC: 0.37035 (Simulation time: 0 hr 2 min 44 sec) 
Heartbeat CPU  0 instructions:  125000001 cycles:  174098719 heartbeat IPC: 0.35791 cumulative IPC: 0.36983 (Simulation time: 0 hr 2 min 46 sec) 
Heartbeat CPU  0 instructions:  126000000 cycles:  176868474 heartbeat IPC: 0.36104 cumulative IPC: 0.36949 (Simulation time: 0 hr 2 min 48 sec) 
Heartbeat CPU  0 instructions:  127000000 cycles:  179445883 heartbeat IPC: 0.38799 cumulative IPC: 0.37014 (Simulation time: 0 hr 2 min 50 sec) 
Heartbeat CPU  0 instructions:  128000000 cycles:  182176082 heartbeat IPC: 0.36627 cumulative IPC: 0.37000 (Simulation time: 0 hr 2 min 52 sec) 
Heartbeat CPU  0 instructions:  129000001 cycles:  184968323 heartbeat IPC: 0.35814 cumulative IPC: 0.36958 (Simulation time: 0 hr 2 min 53 sec) 
Heartbeat CPU  0 instructions:  130000000 cycles:  187693705 heartbeat IPC: 0.36692 cumulative IPC: 0.36949 (Simulation time: 0 hr 2 min 55 sec) 
Heartbeat CPU  0 instructions:  131000001 cycles:  190300644 heartbeat IPC: 0.38359 cumulative IPC: 0.36993 (Simulation time: 0 hr 2 min 57 sec) 
Heartbeat CPU  0 instructions:  132000000 cycles:  192947725 heartbeat IPC: 0.37777 cumulative IPC: 0.37017 (Simulation time: 0 hr 2 min 59 sec) 
Heartbeat CPU  0 instructions:  133000000 cycles:  195626069 heartbeat IPC: 0.37337 cumulative IPC: 0.37026 (Simulation time: 0 hr 3 min 1 sec) 
Heartbeat CPU  0 instructions:  134000001 cycles:  198346282 heartbeat IPC: 0.36762 cumulative IPC: 0.37019 (Simulation time: 0 hr 3 min 3 sec) 
Heartbeat CPU  0 instructions:  135000002 cycles:  201111401 heartbeat IPC: 0.36165 cumulative IPC: 0.36994 (Simulation time: 0 hr 3 min 5 sec) 
Heartbeat CPU  0 instructions:  136000000 cycles:  203604369 heartbeat IPC: 0.40113 cumulative IPC: 0.37074 (Simulation time: 0 hr 3 min 7 sec) 
Heartbeat CPU  0 instructions:  137000002 cycles:  206285754 heartbeat IPC: 0.37294 cumulative IPC: 0.37080 (Simulation time: 0 hr 3 min 9 sec) 
Heartbeat CPU  0 instructions:  138000000 cycles:  209058502 heartbeat IPC: 0.36065 cumulative IPC: 0.37052 (Simulation time: 0 hr 3 min 11 sec) 
Heartbeat CPU  0 instructions:  139000000 cycles:  211729034 heartbeat IPC: 0.37446 cumulative IPC: 0.37062 (Simulation time: 0 hr 3 min 12 sec) 
Heartbeat CPU  0 instructions:  140000000 cycles:  214502172 heartbeat IPC: 0.36060 cumulative IPC: 0.37036 (Simulation time: 0 hr 3 min 14 sec) 
Heartbeat CPU  0 instructions:  141000000 cycles:  216876394 heartbeat IPC: 0.42119 cumulative IPC: 0.37146 (Simulation time: 0 hr 3 min 16 sec) 
Heartbeat CPU  0 instructions:  142000000 cycles:  219335950 heartbeat IPC: 0.40658 cumulative IPC: 0.37222 (Simulation time: 0 hr 3 min 18 sec) 
Heartbeat CPU  0 instructions:  143000000 cycles:  222189351 heartbeat IPC: 0.35046 cumulative IPC: 0.37169 (Simulation time: 0 hr 3 min 20 sec) 
Heartbeat CPU  0 instructions:  144000000 cycles:  225003104 heartbeat IPC: 0.35540 cumulative IPC: 0.37130 (Simulation time: 0 hr 3 min 22 sec) 
Heartbeat CPU  0 instructions:  145000003 cycles:  227714222 heartbeat IPC: 0.36885 cumulative IPC: 0.37124 (Simulation time: 0 hr 3 min 24 sec) 
Heartbeat CPU  0 instructions:  146000000 cycles:  230482961 heartbeat IPC: 0.36117 cumulative IPC: 0.37102 (Simulation time: 0 hr 3 min 25 sec) 
Heartbeat CPU  0 instructions:  147000000 cycles:  233203057 heartbeat IPC: 0.36763 cumulative IPC: 0.37095 (Simulation time: 0 hr 3 min 27 sec) 
Heartbeat CPU  0 instructions:  148000000 cycles:  235946694 heartbeat IPC: 0.36448 cumulative IPC: 0.37081 (Simulation time: 0 hr 3 min 29 sec) 
Heartbeat CPU  0 instructions:  149000000 cycles:  238255529 heartbeat IPC: 0.43312 cumulative IPC: 0.37190 (Simulation time: 0 hr 3 min 31 sec) 
Heartbeat CPU  0 instructions:  150000000 cycles:  240575621 heartbeat IPC: 0.43102 cumulative IPC: 0.37292 (Simulation time: 0 hr 3 min 33 sec) 
Heartbeat CPU  0 instructions:  151000003 cycles:  243080394 heartbeat IPC: 0.39924 cumulative IPC: 0.37341 (Simulation time: 0 hr 3 min 34 sec) 
Heartbeat CPU  0 instructions:  152000000 cycles:  245926221 heartbeat IPC: 0.35139 cumulative IPC: 0.37296 (Simulation time: 0 hr 3 min 36 sec) 
Heartbeat CPU  0 instructions:  153000000 cycles:  248669363 heartbeat IPC: 0.36455 cumulative IPC: 0.37280 (Simulation time: 0 hr 3 min 38 sec) 
Heartbeat CPU  0 instructions:  154000000 cycles:  251391061 heartbeat IPC: 0.36742 cumulative IPC: 0.37269 (Simulation time: 0 hr 3 min 40 sec) 
Heartbeat CPU  0 instructions:  155000002 cycles:  254110559 heartbeat IPC: 0.36772 cumulative IPC: 0.37260 (Simulation time: 0 hr 3 min 42 sec) 
Heartbeat CPU  0 instructions:  156000000 cycles:  256844236 heartbeat IPC: 0.36581 cumulative IPC: 0.37248 (Simulation time: 0 hr 3 min 44 sec) 
Heartbeat CPU  0 instructions:  157000000 cycles:  259591246 heartbeat IPC: 0.36403 cumulative IPC: 0.37233 (Simulation time: 0 hr 3 min 46 sec) 
Heartbeat CPU  0 instructions:  158000002 cycles:  261566060 heartbeat IPC: 0.50638 cumulative IPC: 0.37404 (Simulation time: 0 hr 3 min 47 sec) 
Heartbeat CPU  0 instructions:  159000001 cycles:  263932687 heartbeat IPC: 0.42254 cumulative IPC: 0.37476 (Simulation time: 0 hr 3 min 49 sec) 
Heartbeat CPU  0 instructions:  160000000 cycles:  266656471 heartbeat IPC: 0.36714 cumulative IPC: 0.37463 (Simulation time: 0 hr 3 min 51 sec) 
Heartbeat CPU  0 instructions:  161000002 cycles:  269335666 heartbeat IPC: 0.37325 cumulative IPC: 0.37461 (Simulation time: 0 hr 3 min 53 sec) 
Heartbeat CPU  0 instructions:  162000000 cycles:  272206879 heartbeat IPC: 0.34828 cumulative IPC: 0.37416 (Simulation time: 0 hr 3 min 55 sec) 
Heartbeat CPU  0 instructions:  163000001 cycles:  274904346 heartbeat IPC: 0.37072 cumulative IPC: 0.37410 (Simulation time: 0 hr 3 min 57 sec) 
Heartbeat CPU  0 instructions:  164000000 cycles:  277614166 heartbeat IPC: 0.36903 cumulative IPC: 0.37402 (Simulation time: 0 hr 3 min 59 sec) 
Heartbeat CPU  0 instructions:  165000001 cycles:  280330243 heartbeat IPC: 0.36818 cumulative IPC: 0.37393 (Simulation time: 0 hr 4 min 0 sec) 
Heartbeat CPU  0 instructions:  166000001 cycles:  283065757 heartbeat IPC: 0.36556 cumulative IPC: 0.37380 (Simulation time: 0 hr 4 min 2 sec) 
Heartbeat CPU  0 instructions:  167000003 cycles:  285868573 heartbeat IPC: 0.35678 cumulative IPC: 0.37353 (Simulation time: 0 hr 4 min 4 sec) 
Heartbeat CPU  0 instructions:  168000000 cycles:  288611339 heartbeat IPC: 0.36459 cumulative IPC: 0.37340 (Simulation time: 0 hr 4 min 6 sec) 
Heartbeat CPU  0 instructions:  169000003 cycles:  291345113 heartbeat IPC: 0.36580 cumulative IPC: 0.37329 (Simulation time: 0 hr 4 min 8 sec) 
Heartbeat CPU  0 instructions:  170000001 cycles:  294071675 heartbeat IPC: 0.36676 cumulative IPC: 0.37319 (Simulation time: 0 hr 4 min 10 sec) 
Heartbeat CPU  0 instructions:  171000001 cycles:  296142302 heartbeat IPC: 0.48295 cumulative IPC: 0.37439 (Simulation time: 0 hr 4 min 12 sec) 
Heartbeat CPU  0 instructions:  172000000 cycles:  298585225 heartbeat IPC: 0.40935 cumulative IPC: 0.37483 (Simulation time: 0 hr 4 min 13 sec) 
Heartbeat CPU  0 instructions:  173000000 cycles:  301272654 heartbeat IPC: 0.37210 cumulative IPC: 0.37480 (Simulation time: 0 hr 4 min 15 sec) 
Heartbeat CPU  0 instructions:  174000000 cycles:  303744121 heartbeat IPC: 0.40462 cumulative IPC: 0.37517 (Simulation time: 0 hr 4 min 17 sec) 
Heartbeat CPU  0 instructions:  175000000 cycles:  306274451 heartbeat IPC: 0.39521 cumulative IPC: 0.37542 (Simulation time: 0 hr 4 min 19 sec) 
Heartbeat CPU  0 instructions:  176000000 cycles:  308974745 heartbeat IPC: 0.37033 cumulative IPC: 0.37536 (Simulation time: 0 hr 4 min 21 sec) 
Heartbeat CPU  0 instructions:  177000000 cycles:  311741074 heartbeat IPC: 0.36149 cumulative IPC: 0.37517 (Simulation time: 0 hr 4 min 23 sec) 
Heartbeat CPU  0 instructions:  178000003 cycles:  314393709 heartbeat IPC: 0.37698 cumulative IPC: 0.37519 (Simulation time: 0 hr 4 min 25 sec) 
Heartbeat CPU  0 instructions:  179000002 cycles:  317097311 heartbeat IPC: 0.36988 cumulative IPC: 0.37512 (Simulation time: 0 hr 4 min 27 sec) 
Heartbeat CPU  0 instructions:  180000000 cycles:  319715904 heartbeat IPC: 0.38188 cumulative IPC: 0.37521 (Simulation time: 0 hr 4 min 28 sec) 
Heartbeat CPU  0 instructions:  181000001 cycles:  322437262 heartbeat IPC: 0.36746 cumulative IPC: 0.37511 (Simulation time: 0 hr 4 min 30 sec) 
Heartbeat CPU  0 instructions:  182000000 cycles:  325303646 heartbeat IPC: 0.34887 cumulative IPC: 0.37477 (Simulation time: 0 hr 4 min 32 sec) 
Heartbeat CPU  0 instructions:  183000000 cycles:  328028379 heartbeat IPC: 0.36701 cumulative IPC: 0.37467 (Simulation time: 0 hr 4 min 34 sec) 
Heartbeat CPU  0 instructions:  184000000 cycles:  330731126 heartbeat IPC: 0.36999 cumulative IPC: 0.37461 (Simulation time: 0 hr 4 min 36 sec) 
Heartbeat CPU  0 instructions:  185000000 cycles:  333415216 heartbeat IPC: 0.37257 cumulative IPC: 0.37459 (Simulation time: 0 hr 4 min 38 sec) 
Heartbeat CPU  0 instructions:  186000003 cycles:  336150849 heartbeat IPC: 0.36555 cumulative IPC: 0.37448 (Simulation time: 0 hr 4 min 40 sec) 
Heartbeat CPU  0 instructions:  187000001 cycles:  338927489 heartbeat IPC: 0.36015 cumulative IPC: 0.37431 (Simulation time: 0 hr 4 min 42 sec) 
Heartbeat CPU  0 instructions:  188000000 cycles:  341658894 heartbeat IPC: 0.36611 cumulative IPC: 0.37422 (Simulation time: 0 hr 4 min 44 sec) 
Heartbeat CPU  0 instructions:  189000001 cycles:  344405639 heartbeat IPC: 0.36407 cumulative IPC: 0.37410 (Simulation time: 0 hr 4 min 46 sec) 
Heartbeat CPU  0 instructions:  190000000 cycles:  347205120 heartbeat IPC: 0.35721 cumulative IPC: 0.37390 (Simulation time: 0 hr 4 min 48 sec) 
Heartbeat CPU  0 instructions:  191000001 cycles:  349929384 heartbeat IPC: 0.36707 cumulative IPC: 0.37383 (Simulation time: 0 hr 4 min 50 sec) 
Heartbeat CPU  0 instructions:  192000000 cycles:  352699475 heartbeat IPC: 0.36100 cumulative IPC: 0.37368 (Simulation time: 0 hr 4 min 52 sec) 
Heartbeat CPU  0 instructions:  193000002 cycles:  355298101 heartbeat IPC: 0.38482 cumulative IPC: 0.37380 (Simulation time: 0 hr 4 min 54 sec) 
Heartbeat CPU  0 instructions:  194000001 cycles:  357233843 heartbeat IPC: 0.51660 cumulative IPC: 0.37490 (Simulation time: 0 hr 4 min 56 sec) 
Heartbeat CPU  0 instructions:  195000000 cycles:  359671147 heartbeat IPC: 0.41029 cumulative IPC: 0.37524 (Simulation time: 0 hr 4 min 58 sec) 
Heartbeat CPU  0 instructions:  196000000 cycles:  362583571 heartbeat IPC: 0.34336 cumulative IPC: 0.37488 (Simulation time: 0 hr 5 min 0 sec) 
Heartbeat CPU  0 instructions:  197000000 cycles:  365278210 heartbeat IPC: 0.37111 cumulative IPC: 0.37484 (Simulation time: 0 hr 5 min 2 sec) 
Heartbeat CPU  0 instructions:  198000000 cycles:  368016737 heartbeat IPC: 0.36516 cumulative IPC: 0.37474 (Simulation time: 0 hr 5 min 4 sec) 
Heartbeat CPU  0 instructions:  199000000 cycles:  370636470 heartbeat IPC: 0.38172 cumulative IPC: 0.37481 (Simulation time: 0 hr 5 min 6 sec) 
Heartbeat CPU  0 instructions:  200000000 cycles:  373175615 heartbeat IPC: 0.39383 cumulative IPC: 0.37499 (Simulation time: 0 hr 5 min 8 sec) 
Heartbeat CPU  0 instructions:  201000001 cycles:  375923014 heartbeat IPC: 0.36398 cumulative IPC: 0.37488 (Simulation time: 0 hr 5 min 10 sec) 
Heartbeat CPU  0 instructions:  202000002 cycles:  378605941 heartbeat IPC: 0.37273 cumulative IPC: 0.37485 (Simulation time: 0 hr 5 min 12 sec) 
Heartbeat CPU  0 instructions:  203000001 cycles:  381366327 heartbeat IPC: 0.36227 cumulative IPC: 0.37473 (Simulation time: 0 hr 5 min 14 sec) 
Heartbeat CPU  0 instructions:  204000000 cycles:  384148244 heartbeat IPC: 0.35946 cumulative IPC: 0.37458 (Simulation time: 0 hr 5 min 16 sec) 
Heartbeat CPU  0 instructions:  205000002 cycles:  386867453 heartbeat IPC: 0.36775 cumulative IPC: 0.37451 (Simulation time: 0 hr 5 min 18 sec) 
Heartbeat CPU  0 instructions:  206000002 cycles:  389588485 heartbeat IPC: 0.36751 cumulative IPC: 0.37444 (Simulation time: 0 hr 5 min 20 sec) 
Heartbeat CPU  0 instructions:  207000001 cycles:  392292623 heartbeat IPC: 0.36980 cumulative IPC: 0.37440 (Simulation time: 0 hr 5 min 22 sec) 
Heartbeat CPU  0 instructions:  208000000 cycles:  395070200 heartbeat IPC: 0.36003 cumulative IPC: 0.37426 (Simulation time: 0 hr 5 min 24 sec) 
Heartbeat CPU  0 instructions:  209000001 cycles:  397633081 heartbeat IPC: 0.39019 cumulative IPC: 0.37440 (Simulation time: 0 hr 5 min 27 sec) 
Heartbeat CPU  0 instructions:  210000000 cycles:  399855642 heartbeat IPC: 0.44993 cumulative IPC: 0.37497 (Simulation time: 0 hr 5 min 28 sec) 
Heartbeat CPU  0 instructions:  211000000 cycles:  402121379 heartbeat IPC: 0.44136 cumulative IPC: 0.37548 (Simulation time: 0 hr 5 min 30 sec) 
Heartbeat CPU  0 instructions:  212000000 cycles:  404920819 heartbeat IPC: 0.35721 cumulative IPC: 0.37531 (Simulation time: 0 hr 5 min 32 sec) 
Heartbeat CPU  0 instructions:  213000000 cycles:  407650400 heartbeat IPC: 0.36636 cumulative IPC: 0.37523 (Simulation time: 0 hr 5 min 34 sec) 
Heartbeat CPU  0 instructions:  214000000 cycles:  410482291 heartbeat IPC: 0.35312 cumulative IPC: 0.37502 (Simulation time: 0 hr 5 min 36 sec) 
Heartbeat CPU  0 instructions:  215000002 cycles:  413239809 heartbeat IPC: 0.36265 cumulative IPC: 0.37491 (Simulation time: 0 hr 5 min 39 sec) 
Heartbeat CPU  0 instructions:  216000000 cycles:  415975851 heartbeat IPC: 0.36549 cumulative IPC: 0.37483 (Simulation time: 0 hr 5 min 41 sec) 
Heartbeat CPU  0 instructions:  217000000 cycles:  418669116 heartbeat IPC: 0.37130 cumulative IPC: 0.37480 (Simulation time: 0 hr 5 min 43 sec) 
Heartbeat CPU  0 instructions:  218000003 cycles:  421410989 heartbeat IPC: 0.36472 cumulative IPC: 0.37471 (Simulation time: 0 hr 5 min 45 sec) 
Heartbeat CPU  0 instructions:  219000000 cycles:  424161265 heartbeat IPC: 0.36360 cumulative IPC: 0.37461 (Simulation time: 0 hr 5 min 47 sec) 
Heartbeat CPU  0 instructions:  220000000 cycles:  426860293 heartbeat IPC: 0.37050 cumulative IPC: 0.37458 (Simulation time: 0 hr 5 min 49 sec) 
Heartbeat CPU  0 instructions:  221000001 cycles:  429634651 heartbeat IPC: 0.36044 cumulative IPC: 0.37446 (Simulation time: 0 hr 5 min 51 sec) 
Heartbeat CPU  0 instructions:  222000001 cycles:  432405187 heartbeat IPC: 0.36094 cumulative IPC: 0.37434 (Simulation time: 0 hr 5 min 53 sec) 
Heartbeat CPU  0 instructions:  223000002 cycles:  435192071 heartbeat IPC: 0.35882 cumulative IPC: 0.37421 (Simulation time: 0 hr 5 min 55 sec) 
Heartbeat CPU  0 instructions:  224000000 cycles:  437978329 heartbeat IPC: 0.35890 cumulative IPC: 0.37408 (Simulation time: 0 hr 5 min 57 sec) 
Heartbeat CPU  0 instructions:  225000000 cycles:  440756305 heartbeat IPC: 0.35997 cumulative IPC: 0.37396 (Simulation time: 0 hr 5 min 59 sec) 
Heartbeat CPU  0 instructions:  226000001 cycles:  443574212 heartbeat IPC: 0.35487 cumulative IPC: 0.37381 (Simulation time: 0 hr 6 min 1 sec) 
Heartbeat CPU  0 instructions:  227000000 cycles:  446297026 heartbeat IPC: 0.36727 cumulative IPC: 0.37375 (Simulation time: 0 hr 6 min 3 sec) 
Heartbeat CPU  0 instructions:  228000000 cycles:  449041907 heartbeat IPC: 0.36431 cumulative IPC: 0.37368 (Simulation time: 0 hr 6 min 5 sec) 
Heartbeat CPU  0 instructions:  229000000 cycles:  451386566 heartbeat IPC: 0.42650 cumulative IPC: 0.37404 (Simulation time: 0 hr 6 min 7 sec) 
Heartbeat CPU  0 instructions:  230000000 cycles:  453434830 heartbeat IPC: 0.48822 cumulative IPC: 0.37471 (Simulation time: 0 hr 6 min 9 sec) 
Heartbeat CPU  0 instructions:  231000001 cycles:  456217603 heartbeat IPC: 0.35935 cumulative IPC: 0.37459 (Simulation time: 0 hr 6 min 11 sec) 
Heartbeat CPU  0 instructions:  232000000 cycles:  458724544 heartbeat IPC: 0.39889 cumulative IPC: 0.37476 (Simulation time: 0 hr 6 min 13 sec) 
Heartbeat CPU  0 instructions:  233000002 cycles:  461274316 heartbeat IPC: 0.39219 cumulative IPC: 0.37489 (Simulation time: 0 hr 6 min 15 sec) 
Heartbeat CPU  0 instructions:  234000002 cycles:  463977968 heartbeat IPC: 0.36987 cumulative IPC: 0.37485 (Simulation time: 0 hr 6 min 17 sec) 
Heartbeat CPU  0 instructions:  235000002 cycles:  466714113 heartbeat IPC: 0.36548 cumulative IPC: 0.37478 (Simulation time: 0 hr 6 min 19 sec) 
Heartbeat CPU  0 instructions:  236000000 cycles:  469355645 heartbeat IPC: 0.37857 cumulative IPC: 0.37481 (Simulation time: 0 hr 6 min 21 sec) 
Heartbeat CPU  0 instructions:  237000001 cycles:  472031526 heartbeat IPC: 0.37371 cumulative IPC: 0.37480 (Simulation time: 0 hr 6 min 23 sec) 
Heartbeat CPU  0 instructions:  238000002 cycles:  474827163 heartbeat IPC: 0.35770 cumulative IPC: 0.37467 (Simulation time: 0 hr 6 min 25 sec) 
Heartbeat CPU  0 instructions:  239000000 cycles:  477449023 heartbeat IPC: 0.38141 cumulative IPC: 0.37471 (Simulation time: 0 hr 6 min 28 sec) 
Heartbeat CPU  0 instructions:  240000000 cycles:  480226585 heartbeat IPC: 0.36003 cumulative IPC: 0.37461 (Simulation time: 0 hr 6 min 30 sec) 
Heartbeat CPU  0 instructions:  241000001 cycles:  483030086 heartbeat IPC: 0.35670 cumulative IPC: 0.37447 (Simulation time: 0 hr 6 min 32 sec) 
Heartbeat CPU  0 instructions:  242000000 cycles:  485735268 heartbeat IPC: 0.36966 cumulative IPC: 0.37444 (Simulation time: 0 hr 6 min 34 sec) 
Heartbeat CPU  0 instructions:  243000002 cycles:  488552191 heartbeat IPC: 0.35500 cumulative IPC: 0.37429 (Simulation time: 0 hr 6 min 36 sec) 
Heartbeat CPU  0 instructions:  244000000 cycles:  491304541 heartbeat IPC: 0.36333 cumulative IPC: 0.37422 (Simulation time: 0 hr 6 min 38 sec) 
Heartbeat CPU  0 instructions:  245000001 cycles:  493965999 heartbeat IPC: 0.37573 cumulative IPC: 0.37423 (Simulation time: 0 hr 6 min 39 sec) 
Heartbeat CPU  0 instructions:  246000000 cycles:  496463173 heartbeat IPC: 0.40045 cumulative IPC: 0.37439 (Simulation time: 0 hr 6 min 41 sec) 
Heartbeat CPU  0 instructions:  247000001 cycles:  499245789 heartbeat IPC: 0.35937 cumulative IPC: 0.37429 (Simulation time: 0 hr 6 min 43 sec) 
Heartbeat CPU  0 instructions:  248000000 cycles:  501795917 heartbeat IPC: 0.39214 cumulative IPC: 0.37440 (Simulation time: 0 hr 6 min 45 sec) 
Heartbeat CPU  0 instructions:  249000000 cycles:  504500638 heartbeat IPC: 0.36972 cumulative IPC: 0.37437 (Simulation time: 0 hr 6 min 47 sec) 
Heartbeat CPU  0 instructions:  250000000 cycles:  507202758 heartbeat IPC: 0.37008 cumulative IPC: 0.37434 (Simulation time: 0 hr 6 min 49 sec) 
Heartbeat CPU  0 instructions:  251000000 cycles:  509568586 heartbeat IPC: 0.42268 cumulative IPC: 0.37463 (Simulation time: 0 hr 6 min 51 sec) 
Heartbeat CPU  0 instructions:  252000000 cycles:  511863703 heartbeat IPC: 0.43571 cumulative IPC: 0.37497 (Simulation time: 0 hr 6 min 52 sec) 
Heartbeat CPU  0 instructions:  253000001 cycles:  514310233 heartbeat IPC: 0.40874 cumulative IPC: 0.37517 (Simulation time: 0 hr 6 min 54 sec) 
Heartbeat CPU  0 instructions:  254000000 cycles:  516944314 heartbeat IPC: 0.37964 cumulative IPC: 0.37520 (Simulation time: 0 hr 6 min 56 sec) 
Heartbeat CPU  0 instructions:  255000001 cycles:  519332411 heartbeat IPC: 0.41874 cumulative IPC: 0.37546 (Simulation time: 0 hr 6 min 58 sec) 
Heartbeat CPU  0 instructions:  256000000 cycles:  522142949 heartbeat IPC: 0.35580 cumulative IPC: 0.37532 (Simulation time: 0 hr 7 min 0 sec) 
Heartbeat CPU  0 instructions:  257000002 cycles:  524970345 heartbeat IPC: 0.35368 cumulative IPC: 0.37518 (Simulation time: 0 hr 7 min 2 sec) 
Heartbeat CPU  0 instructions:  258000001 cycles:  527719295 heartbeat IPC: 0.36377 cumulative IPC: 0.37510 (Simulation time: 0 hr 7 min 4 sec) 
Heartbeat CPU  0 instructions:  259000000 cycles:  530415240 heartbeat IPC: 0.37093 cumulative IPC: 0.37508 (Simulation time: 0 hr 7 min 6 sec) 
Heartbeat CPU  0 instructions:  260000000 cycles:  533113038 heartbeat IPC: 0.37067 cumulative IPC: 0.37505 (Simulation time: 0 hr 7 min 7 sec) 
Heartbeat CPU  0 instructions:  261000001 cycles:  535934248 heartbeat IPC: 0.35446 cumulative IPC: 0.37491 (Simulation time: 0 hr 7 min 9 sec) 
Heartbeat CPU  0 instructions:  262000003 cycles:  538599820 heartbeat IPC: 0.37515 cumulative IPC: 0.37491 (Simulation time: 0 hr 7 min 11 sec) 
Heartbeat CPU  0 instructions:  263000002 cycles:  541405080 heartbeat IPC: 0.35647 cumulative IPC: 0.37479 (Simulation time: 0 hr 7 min 13 sec) 
Heartbeat CPU  0 instructions:  264000000 cycles:  544043751 heartbeat IPC: 0.37898 cumulative IPC: 0.37482 (Simulation time: 0 hr 7 min 15 sec) 
Heartbeat CPU  0 instructions:  265000000 cycles:  546804114 heartbeat IPC: 0.36227 cumulative IPC: 0.37474 (Simulation time: 0 hr 7 min 17 sec) 
Heartbeat CPU  0 instructions:  266000001 cycles:  549631966 heartbeat IPC: 0.35363 cumulative IPC: 0.37461 (Simulation time: 0 hr 7 min 19 sec) 
Heartbeat CPU  0 instructions:  267000003 cycles:  552356744 heartbeat IPC: 0.36700 cumulative IPC: 0.37456 (Simulation time: 0 hr 7 min 21 sec) 
Heartbeat CPU  0 instructions:  268000000 cycles:  555140584 heartbeat IPC: 0.35921 cumulative IPC: 0.37446 (Simulation time: 0 hr 7 min 23 sec) 
Heartbeat CPU  0 instructions:  269000001 cycles:  557894588 heartbeat IPC: 0.36311 cumulative IPC: 0.37440 (Simulation time: 0 hr 7 min 24 sec) 
Heartbeat CPU  0 instructions:  270000000 cycles:  560768816 heartbeat IPC: 0.34792 cumulative IPC: 0.37423 (Simulation time: 0 hr 7 min 26 sec) 
Heartbeat CPU  0 instructions:  271000000 cycles:  563513273 heartbeat IPC: 0.36437 cumulative IPC: 0.37417 (Simulation time: 0 hr 7 min 28 sec) 
Heartbeat CPU  0 instructions:  272000000 cycles:  566242269 heartbeat IPC: 0.36644 cumulative IPC: 0.37412 (Simulation time: 0 hr 7 min 30 sec) 
Heartbeat CPU  0 instructions:  273000001 cycles:  568637323 heartbeat IPC: 0.41753 cumulative IPC: 0.37435 (Simulation time: 0 hr 7 min 32 sec) 
Heartbeat CPU  0 instructions:  274000000 cycles:  570887102 heartbeat IPC: 0.44449 cumulative IPC: 0.37469 (Simulation time: 0 hr 7 min 34 sec) 
Heartbeat CPU  0 instructions:  275000001 cycles:  573357566 heartbeat IPC: 0.40478 cumulative IPC: 0.37485 (Simulation time: 0 hr 7 min 36 sec) 
Heartbeat CPU  0 instructions:  276000000 cycles:  576001424 heartbeat IPC: 0.37823 cumulative IPC: 0.37487 (Simulation time: 0 hr 7 min 37 sec) 
Heartbeat CPU  0 instructions:  277000000 cycles:  578796930 heartbeat IPC: 0.35772 cumulative IPC: 0.37476 (Simulation time: 0 hr 7 min 39 sec) 
Heartbeat CPU  0 instructions:  278000001 cycles:  581657957 heartbeat IPC: 0.34953 cumulative IPC: 0.37461 (Simulation time: 0 hr 7 min 41 sec) 
Heartbeat CPU  0 instructions:  279000002 cycles:  584416688 heartbeat IPC: 0.36249 cumulative IPC: 0.37454 (Simulation time: 0 hr 7 min 43 sec) 
Heartbeat CPU  0 instructions:  280000000 cycles:  587112476 heartbeat IPC: 0.37095 cumulative IPC: 0.37452 (Simulation time: 0 hr 7 min 45 sec) 
Heartbeat CPU  0 instructions:  281000000 cycles:  589840817 heartbeat IPC: 0.36652 cumulative IPC: 0.37448 (Simulation time: 0 hr 7 min 47 sec) 
Heartbeat CPU  0 instructions:  282000003 cycles:  592631825 heartbeat IPC: 0.35829 cumulative IPC: 0.37438 (Simulation time: 0 hr 7 min 49 sec) 
Heartbeat CPU  0 instructions:  283000003 cycles:  595356203 heartbeat IPC: 0.36706 cumulative IPC: 0.37434 (Simulation time: 0 hr 7 min 51 sec) 
Heartbeat CPU  0 instructions:  284000000 cycles:  597988181 heartbeat IPC: 0.37994 cumulative IPC: 0.37437 (Simulation time: 0 hr 7 min 53 sec) 
Heartbeat CPU  0 instructions:  285000001 cycles:  600793680 heartbeat IPC: 0.35644 cumulative IPC: 0.37427 (Simulation time: 0 hr 7 min 54 sec) 
Heartbeat CPU  0 instructions:  286000003 cycles:  603490023 heartbeat IPC: 0.37087 cumulative IPC: 0.37425 (Simulation time: 0 hr 7 min 56 sec) 
Heartbeat CPU  0 instructions:  287000000 cycles:  606240789 heartbeat IPC: 0.36353 cumulative IPC: 0.37419 (Simulation time: 0 hr 7 min 58 sec) 
Heartbeat CPU  0 instructions:  288000000 cycles:  609036109 heartbeat IPC: 0.35774 cumulative IPC: 0.37410 (Simulation time: 0 hr 8 min 0 sec) 
Heartbeat CPU  0 instructions:  289000000 cycles:  611769395 heartbeat IPC: 0.36586 cumulative IPC: 0.37406 (Simulation time: 0 hr 8 min 2 sec) 
Heartbeat CPU  0 instructions:  290000000 cycles:  614596095 heartbeat IPC: 0.35377 cumulative IPC: 0.37395 (Simulation time: 0 hr 8 min 4 sec) 
Heartbeat CPU  0 instructions:  291000000 cycles:  617341765 heartbeat IPC: 0.36421 cumulative IPC: 0.37389 (Simulation time: 0 hr 8 min 6 sec) 
Heartbeat CPU  0 instructions:  292000000 cycles:  620050991 heartbeat IPC: 0.36911 cumulative IPC: 0.37387 (Simulation time: 0 hr 8 min 8 sec) 
Heartbeat CPU  0 instructions:  293000002 cycles:  622887837 heartbeat IPC: 0.35250 cumulative IPC: 0.37375 (Simulation time: 0 hr 8 min 10 sec) 
Heartbeat CPU  0 instructions:  294000003 cycles:  625598466 heartbeat IPC: 0.36892 cumulative IPC: 0.37373 (Simulation time: 0 hr 8 min 12 sec) 
Heartbeat CPU  0 instructions:  295000003 cycles:  628376188 heartbeat IPC: 0.36001 cumulative IPC: 0.37365 (Simulation time: 0 hr 8 min 13 sec) 
Heartbeat CPU  0 instructions:  296000000 cycles:  631011158 heartbeat IPC: 0.37951 cumulative IPC: 0.37368 (Simulation time: 0 hr 8 min 15 sec) 
Heartbeat CPU  0 instructions:  297000001 cycles:  633146294 heartbeat IPC: 0.46835 cumulative IPC: 0.37407 (Simulation time: 0 hr 8 min 17 sec) 
Heartbeat CPU  0 instructions:  298000000 cycles:  635556090 heartbeat IPC: 0.41497 cumulative IPC: 0.37425 (Simulation time: 0 hr 8 min 19 sec) 
Heartbeat CPU  0 instructions:  299000000 cycles:  638206633 heartbeat IPC: 0.37728 cumulative IPC: 0.37427 (Simulation time: 0 hr 8 min 21 sec) 
Heartbeat CPU  0 instructions:  300000000 cycles:  640732403 heartbeat IPC: 0.39592 cumulative IPC: 0.37437 (Simulation time: 0 hr 8 min 23 sec) 
Heartbeat CPU  0 instructions:  301000001 cycles:  643238120 heartbeat IPC: 0.39909 cumulative IPC: 0.37448 (Simulation time: 0 hr 8 min 25 sec) 
Heartbeat CPU  0 instructions:  302000000 cycles:  645842338 heartbeat IPC: 0.38399 cumulative IPC: 0.37453 (Simulation time: 0 hr 8 min 26 sec) 
Heartbeat CPU  0 instructions:  303000003 cycles:  648602730 heartbeat IPC: 0.36227 cumulative IPC: 0.37447 (Simulation time: 0 hr 8 min 28 sec) 
Heartbeat CPU  0 instructions:  304000000 cycles:  651281588 heartbeat IPC: 0.37329 cumulative IPC: 0.37446 (Simulation time: 0 hr 8 min 30 sec) 
Heartbeat CPU  0 instructions:  305000000 cycles:  654021108 heartbeat IPC: 0.36503 cumulative IPC: 0.37442 (Simulation time: 0 hr 8 min 32 sec) 
Heartbeat CPU  0 instructions:  306000002 cycles:  656865784 heartbeat IPC: 0.35153 cumulative IPC: 0.37430 (Simulation time: 0 hr 8 min 34 sec) 
Heartbeat CPU  0 instructions:  307000000 cycles:  659612253 heartbeat IPC: 0.36410 cumulative IPC: 0.37425 (Simulation time: 0 hr 8 min 36 sec) 
Heartbeat CPU  0 instructions:  308000000 cycles:  662317871 heartbeat IPC: 0.36960 cumulative IPC: 0.37422 (Simulation time: 0 hr 8 min 38 sec) 
Heartbeat CPU  0 instructions:  309000000 cycles:  665035081 heartbeat IPC: 0.36802 cumulative IPC: 0.37419 (Simulation time: 0 hr 8 min 40 sec) 
Heartbeat CPU  0 instructions:  310000000 cycles:  667790139 heartbeat IPC: 0.36297 cumulative IPC: 0.37414 (Simulation time: 0 hr 8 min 42 sec) 
Heartbeat CPU  0 instructions:  311000003 cycles:  670529576 heartbeat IPC: 0.36504 cumulative IPC: 0.37409 (Simulation time: 0 hr 8 min 43 sec) 
Heartbeat CPU  0 instructions:  312000000 cycles:  673168358 heartbeat IPC: 0.37896 cumulative IPC: 0.37412 (Simulation time: 0 hr 8 min 45 sec) 
Heartbeat CPU  0 instructions:  313000000 cycles:  675931004 heartbeat IPC: 0.36197 cumulative IPC: 0.37406 (Simulation time: 0 hr 8 min 47 sec) 
Heartbeat CPU  0 instructions:  314000002 cycles:  678647469 heartbeat IPC: 0.36813 cumulative IPC: 0.37403 (Simulation time: 0 hr 8 min 49 sec) 
Heartbeat CPU  0 instructions:  315000002 cycles:  681350125 heartbeat IPC: 0.37001 cumulative IPC: 0.37401 (Simulation time: 0 hr 8 min 51 sec) 
Heartbeat CPU  0 instructions:  316000000 cycles:  684120835 heartbeat IPC: 0.36092 cumulative IPC: 0.37395 (Simulation time: 0 hr 8 min 53 sec) 
Heartbeat CPU  0 instructions:  317000001 cycles:  686888470 heartbeat IPC: 0.36132 cumulative IPC: 0.37389 (Simulation time: 0 hr 8 min 55 sec) 
Heartbeat CPU  0 instructions:  318000000 cycles:  689665850 heartbeat IPC: 0.36005 cumulative IPC: 0.37382 (Simulation time: 0 hr 8 min 57 sec) 
Heartbeat CPU  0 instructions:  319000000 cycles:  692437572 heartbeat IPC: 0.36079 cumulative IPC: 0.37376 (Simulation time: 0 hr 8 min 59 sec) 
Heartbeat CPU  0 instructions:  320000000 cycles:  695134542 heartbeat IPC: 0.37079 cumulative IPC: 0.37375 (Simulation time: 0 hr 9 min 1 sec) 
Heartbeat CPU  0 instructions:  321000003 cycles:  697698878 heartbeat IPC: 0.38997 cumulative IPC: 0.37382 (Simulation time: 0 hr 9 min 3 sec) 
Heartbeat CPU  0 instructions:  322000002 cycles:  700198654 heartbeat IPC: 0.40004 cumulative IPC: 0.37393 (Simulation time: 0 hr 9 min 4 sec) 
Heartbeat CPU  0 instructions:  323000000 cycles:  702320922 heartbeat IPC: 0.47119 cumulative IPC: 0.37427 (Simulation time: 0 hr 9 min 6 sec) 
Heartbeat CPU  0 instructions:  324000000 cycles:  704734912 heartbeat IPC: 0.41425 cumulative IPC: 0.37444 (Simulation time: 0 hr 9 min 8 sec) 
Heartbeat CPU  0 instructions:  325000000 cycles:  707390510 heartbeat IPC: 0.37656 cumulative IPC: 0.37444 (Simulation time: 0 hr 9 min 10 sec) 
Heartbeat CPU  0 instructions:  326000000 cycles:  710031694 heartbeat IPC: 0.37862 cumulative IPC: 0.37446 (Simulation time: 0 hr 9 min 12 sec) 
Heartbeat CPU  0 instructions:  327000002 cycles:  712740537 heartbeat IPC: 0.36916 cumulative IPC: 0.37444 (Simulation time: 0 hr 9 min 13 sec) 
Heartbeat CPU  0 instructions:  328000000 cycles:  715396068 heartbeat IPC: 0.37657 cumulative IPC: 0.37445 (Simulation time: 0 hr 9 min 15 sec) 
Heartbeat CPU  0 instructions:  329000001 cycles:  718127364 heartbeat IPC: 0.36613 cumulative IPC: 0.37441 (Simulation time: 0 hr 9 min 17 sec) 
Heartbeat CPU  0 instructions:  330000000 cycles:  720963149 heartbeat IPC: 0.35264 cumulative IPC: 0.37431 (Simulation time: 0 hr 9 min 19 sec) 
Heartbeat CPU  0 instructions:  331000000 cycles:  723792535 heartbeat IPC: 0.35343 cumulative IPC: 0.37422 (Simulation time: 0 hr 9 min 21 sec) 
Heartbeat CPU  0 instructions:  332000000 cycles:  726471580 heartbeat IPC: 0.37327 cumulative IPC: 0.37421 (Simulation time: 0 hr 9 min 23 sec) 
Heartbeat CPU  0 instructions:  333000000 cycles:  729147030 heartbeat IPC: 0.37377 cumulative IPC: 0.37421 (Simulation time: 0 hr 9 min 25 sec) 
Heartbeat CPU  0 instructions:  334000001 cycles:  731907450 heartbeat IPC: 0.36226 cumulative IPC: 0.37416 (Simulation time: 0 hr 9 min 27 sec) 
Heartbeat CPU  0 instructions:  335000003 cycles:  734666891 heartbeat IPC: 0.36239 cumulative IPC: 0.37410 (Simulation time: 0 hr 9 min 29 sec) 
Heartbeat CPU  0 instructions:  336000000 cycles:  737347541 heartbeat IPC: 0.37304 cumulative IPC: 0.37410 (Simulation time: 0 hr 9 min 31 sec) 
Heartbeat CPU  0 instructions:  337000000 cycles:  740078506 heartbeat IPC: 0.36617 cumulative IPC: 0.37407 (Simulation time: 0 hr 9 min 32 sec) 
Heartbeat CPU  0 instructions:  338000000 cycles:  742837991 heartbeat IPC: 0.36239 cumulative IPC: 0.37402 (Simulation time: 0 hr 9 min 34 sec) 
Heartbeat CPU  0 instructions:  339000000 cycles:  745514316 heartbeat IPC: 0.37365 cumulative IPC: 0.37401 (Simulation time: 0 hr 9 min 36 sec) 
Heartbeat CPU  0 instructions:  340000000 cycles:  748274273 heartbeat IPC: 0.36232 cumulative IPC: 0.37396 (Simulation time: 0 hr 9 min 38 sec) 
Heartbeat CPU  0 instructions:  341000002 cycles:  751103200 heartbeat IPC: 0.35349 cumulative IPC: 0.37387 (Simulation time: 0 hr 9 min 40 sec) 
Heartbeat CPU  0 instructions:  342000000 cycles:  753828270 heartbeat IPC: 0.36696 cumulative IPC: 0.37384 (Simulation time: 0 hr 9 min 42 sec) 
Heartbeat CPU  0 instructions:  343000000 cycles:  756627471 heartbeat IPC: 0.35724 cumulative IPC: 0.37377 (Simulation time: 0 hr 9 min 44 sec) 
Heartbeat CPU  0 instructions:  344000000 cycles:  759354036 heartbeat IPC: 0.36676 cumulative IPC: 0.37374 (Simulation time: 0 hr 9 min 46 sec) 
Heartbeat CPU  0 instructions:  345000000 cycles:  761917576 heartbeat IPC: 0.39009 cumulative IPC: 0.37381 (Simulation time: 0 hr 9 min 48 sec) 
Heartbeat CPU  0 instructions:  346000001 cycles:  764525670 heartbeat IPC: 0.38342 cumulative IPC: 0.37385 (Simulation time: 0 hr 9 min 50 sec) 
Heartbeat CPU  0 instructions:  347000000 cycles:  766592179 heartbeat IPC: 0.48391 cumulative IPC: 0.37419 (Simulation time: 0 hr 9 min 51 sec) 
Heartbeat CPU  0 instructions:  348000000 cycles:  768868578 heartbeat IPC: 0.43929 cumulative IPC: 0.37441 (Simulation time: 0 hr 9 min 53 sec) 
Heartbeat CPU  0 instructions:  349000003 cycles:  771584403 heartbeat IPC: 0.36821 cumulative IPC: 0.37439 (Simulation time: 0 hr 9 min 55 sec) 
Heartbeat CPU  0 instructions:  350000002 cycles:  774285569 heartbeat IPC: 0.37021 cumulative IPC: 0.37437 (Simulation time: 0 hr 9 min 57 sec) 
Heartbeat CPU  0 instructions:  351000001 cycles:  776926809 heartbeat IPC: 0.37861 cumulative IPC: 0.37439 (Simulation time: 0 hr 9 min 59 sec) 
Heartbeat CPU  0 instructions:  352000000 cycles:  779658987 heartbeat IPC: 0.36601 cumulative IPC: 0.37435 (Simulation time: 0 hr 10 min 1 sec) 
Heartbeat CPU  0 instructions:  353000000 cycles:  782491842 heartbeat IPC: 0.35300 cumulative IPC: 0.37427 (Simulation time: 0 hr 10 min 2 sec) 
Heartbeat CPU  0 instructions:  354000001 cycles:  785256297 heartbeat IPC: 0.36174 cumulative IPC: 0.37421 (Simulation time: 0 hr 10 min 4 sec) 
Heartbeat CPU  0 instructions:  355000002 cycles:  787989649 heartbeat IPC: 0.36585 cumulative IPC: 0.37418 (Simulation time: 0 hr 10 min 6 sec) 
Heartbeat CPU  0 instructions:  356000000 cycles:  790641945 heartbeat IPC: 0.37703 cumulative IPC: 0.37419 (Simulation time: 0 hr 10 min 8 sec) 
Heartbeat CPU  0 instructions:  357000000 cycles:  793394876 heartbeat IPC: 0.36325 cumulative IPC: 0.37415 (Simulation time: 0 hr 10 min 10 sec) 
Heartbeat CPU  0 instructions:  358000000 cycles:  796063879 heartbeat IPC: 0.37467 cumulative IPC: 0.37415 (Simulation time: 0 hr 10 min 12 sec) 
Heartbeat CPU  0 instructions:  359000001 cycles:  798776274 heartbeat IPC: 0.36868 cumulative IPC: 0.37413 (Simulation time: 0 hr 10 min 14 sec) 
Heartbeat CPU  0 instructions:  360000000 cycles:  801550446 heartbeat IPC: 0.36047 cumulative IPC: 0.37407 (Simulation time: 0 hr 10 min 16 sec) 
Heartbeat CPU  0 instructions:  361000002 cycles:  804230723 heartbeat IPC: 0.37310 cumulative IPC: 0.37407 (Simulation time: 0 hr 10 min 18 sec) 
Heartbeat CPU  0 instructions:  362000000 cycles:  807024217 heartbeat IPC: 0.35797 cumulative IPC: 0.37401 (Simulation time: 0 hr 10 min 20 sec) 
Heartbeat CPU  0 instructions:  363000000 cycles:  809795201 heartbeat IPC: 0.36088 cumulative IPC: 0.37395 (Simulation time: 0 hr 10 min 21 sec) 
Heartbeat CPU  0 instructions:  364000000 cycles:  812550604 heartbeat IPC: 0.36292 cumulative IPC: 0.37391 (Simulation time: 0 hr 10 min 23 sec) 
Heartbeat CPU  0 instructions:  365000001 cycles:  815308893 heartbeat IPC: 0.36254 cumulative IPC: 0.37387 (Simulation time: 0 hr 10 min 25 sec) 
Heartbeat CPU  0 instructions:  366000000 cycles:  818067773 heartbeat IPC: 0.36247 cumulative IPC: 0.37382 (Simulation time: 0 hr 10 min 27 sec) 
Heartbeat CPU  0 instructions:  367000000 cycles:  820641033 heartbeat IPC: 0.38861 cumulative IPC: 0.37388 (Simulation time: 0 hr 10 min 29 sec) 
Heartbeat CPU  0 instructions:  368000000 cycles:  823235027 heartbeat IPC: 0.38551 cumulative IPC: 0.37392 (Simulation time: 0 hr 10 min 31 sec) 
Heartbeat CPU  0 instructions:  369000000 cycles:  825312518 heartbeat IPC: 0.48135 cumulative IPC: 0.37423 (Simulation time: 0 hr 10 min 33 sec) 
Heartbeat CPU  0 instructions:  370000000 cycles:  827542829 heartbeat IPC: 0.44837 cumulative IPC: 0.37446 (Simulation time: 0 hr 10 min 34 sec) 
Heartbeat CPU  0 instructions:  371000000 cycles:  830204395 heartbeat IPC: 0.37572 cumulative IPC: 0.37446 (Simulation time: 0 hr 10 min 36 sec) 
Heartbeat CPU  0 instructions:  372000000 cycles:  833084398 heartbeat IPC: 0.34722 cumulative IPC: 0.37435 (Simulation time: 0 hr 10 min 38 sec) 
Heartbeat CPU  0 instructions:  373000000 cycles:  835815958 heartbeat IPC: 0.36609 cumulative IPC: 0.37432 (Simulation time: 0 hr 10 min 40 sec) 
Heartbeat CPU  0 instructions:  374000003 cycles:  838516115 heartbeat IPC: 0.37035 cumulative IPC: 0.37431 (Simulation time: 0 hr 10 min 42 sec) 
Heartbeat CPU  0 instructions:  375000000 cycles:  841178647 heartbeat IPC: 0.37558 cumulative IPC: 0.37431 (Simulation time: 0 hr 10 min 44 sec) 
Heartbeat CPU  0 instructions:  376000000 cycles:  843959097 heartbeat IPC: 0.35965 cumulative IPC: 0.37426 (Simulation time: 0 hr 10 min 46 sec) 
Heartbeat CPU  0 instructions:  377000003 cycles:  846641000 heartbeat IPC: 0.37287 cumulative IPC: 0.37425 (Simulation time: 0 hr 10 min 47 sec) 
Heartbeat CPU  0 instructions:  378000000 cycles:  849344280 heartbeat IPC: 0.36992 cumulative IPC: 0.37424 (Simulation time: 0 hr 10 min 49 sec) 
Heartbeat CPU  0 instructions:  379000002 cycles:  852138709 heartbeat IPC: 0.35786 cumulative IPC: 0.37418 (Simulation time: 0 hr 10 min 51 sec) 
Heartbeat CPU  0 instructions:  380000000 cycles:  854831975 heartbeat IPC: 0.37130 cumulative IPC: 0.37417 (Simulation time: 0 hr 10 min 53 sec) 
Heartbeat CPU  0 instructions:  381000000 cycles:  857639826 heartbeat IPC: 0.35614 cumulative IPC: 0.37410 (Simulation time: 0 hr 10 min 55 sec) 
Heartbeat CPU  0 instructions:  382000001 cycles:  860386063 heartbeat IPC: 0.36413 cumulative IPC: 0.37406 (Simulation time: 0 hr 10 min 57 sec) 
Heartbeat CPU  0 instructions:  383000002 cycles:  863050658 heartbeat IPC: 0.37529 cumulative IPC: 0.37407 (Simulation time: 0 hr 10 min 59 sec) 
Heartbeat CPU  0 instructions:  384000000 cycles:  865152538 heartbeat IPC: 0.47576 cumulative IPC: 0.37435 (Simulation time: 0 hr 11 min 0 sec) 
Heartbeat CPU  0 instructions:  385000000 cycles:  867257117 heartbeat IPC: 0.47515 cumulative IPC: 0.37463 (Simulation time: 0 hr 11 min 2 sec) 
Heartbeat CPU  0 instructions:  386000002 cycles:  869995700 heartbeat IPC: 0.36515 cumulative IPC: 0.37459 (Simulation time: 0 hr 11 min 4 sec) 
Heartbeat CPU  0 instructions:  387000001 cycles:  872628299 heartbeat IPC: 0.37985 cumulative IPC: 0.37461 (Simulation time: 0 hr 11 min 6 sec) 
Heartbeat CPU  0 instructions:  388000000 cycles:  875379668 heartbeat IPC: 0.36346 cumulative IPC: 0.37457 (Simulation time: 0 hr 11 min 8 sec) 
Heartbeat CPU  0 instructions:  389000000 cycles:  878087566 heartbeat IPC: 0.36929 cumulative IPC: 0.37455 (Simulation time: 0 hr 11 min 10 sec) 
Heartbeat CPU  0 instructions:  390000000 cycles:  880785145 heartbeat IPC: 0.37070 cumulative IPC: 0.37454 (Simulation time: 0 hr 11 min 12 sec) 
Heartbeat CPU  0 instructions:  391000001 cycles:  883500127 heartbeat IPC: 0.36833 cumulative IPC: 0.37452 (Simulation time: 0 hr 11 min 14 sec) 
Heartbeat CPU  0 instructions:  392000000 cycles:  886242218 heartbeat IPC: 0.36468 cumulative IPC: 0.37448 (Simulation time: 0 hr 11 min 15 sec) 
Heartbeat CPU  0 instructions:  393000000 cycles:  888968250 heartbeat IPC: 0.36683 cumulative IPC: 0.37446 (Simulation time: 0 hr 11 min 17 sec) 
Heartbeat CPU  0 instructions:  394000002 cycles:  891592602 heartbeat IPC: 0.38105 cumulative IPC: 0.37448 (Simulation time: 0 hr 11 min 19 sec) 
Heartbeat CPU  0 instructions:  395000002 cycles:  894395160 heartbeat IPC: 0.35682 cumulative IPC: 0.37442 (Simulation time: 0 hr 11 min 21 sec) 
Heartbeat CPU  0 instructions:  396000000 cycles:  897060319 heartbeat IPC: 0.37521 cumulative IPC: 0.37442 (Simulation time: 0 hr 11 min 23 sec) 
Heartbeat CPU  0 instructions:  397000000 cycles:  899790126 heartbeat IPC: 0.36633 cumulative IPC: 0.37439 (Simulation time: 0 hr 11 min 25 sec) 
Heartbeat CPU  0 instructions:  398000001 cycles:  902571110 heartbeat IPC: 0.35959 cumulative IPC: 0.37434 (Simulation time: 0 hr 11 min 27 sec) 
Heartbeat CPU  0 instructions:  399000002 cycles:  905342406 heartbeat IPC: 0.36084 cumulative IPC: 0.37429 (Simulation time: 0 hr 11 min 29 sec) 
Heartbeat CPU  0 instructions:  400000000 cycles:  908146590 heartbeat IPC: 0.35661 cumulative IPC: 0.37423 (Simulation time: 0 hr 11 min 31 sec) 
Heartbeat CPU  0 instructions:  401000000 cycles:  910890336 heartbeat IPC: 0.36447 cumulative IPC: 0.37420 (Simulation time: 0 hr 11 min 32 sec) 
Heartbeat CPU  0 instructions:  402000000 cycles:  913608419 heartbeat IPC: 0.36791 cumulative IPC: 0.37418 (Simulation time: 0 hr 11 min 34 sec) 
Heartbeat CPU  0 instructions:  403000001 cycles:  916156040 heartbeat IPC: 0.39252 cumulative IPC: 0.37423 (Simulation time: 0 hr 11 min 36 sec) 
Heartbeat CPU  0 instructions:  404000000 cycles:  918683020 heartbeat IPC: 0.39573 cumulative IPC: 0.37430 (Simulation time: 0 hr 11 min 38 sec) 
Heartbeat CPU  0 instructions:  405000000 cycles:  920830816 heartbeat IPC: 0.46559 cumulative IPC: 0.37454 (Simulation time: 0 hr 11 min 40 sec) 
Heartbeat CPU  0 instructions:  406000002 cycles:  923210502 heartbeat IPC: 0.42022 cumulative IPC: 0.37467 (Simulation time: 0 hr 11 min 41 sec) 
Heartbeat CPU  0 instructions:  407000000 cycles:  925853186 heartbeat IPC: 0.37840 cumulative IPC: 0.37469 (Simulation time: 0 hr 11 min 43 sec) 
Heartbeat CPU  0 instructions:  408000000 cycles:  928606324 heartbeat IPC: 0.36322 cumulative IPC: 0.37465 (Simulation time: 0 hr 11 min 45 sec) 
Heartbeat CPU  0 instructions:  409000002 cycles:  931495722 heartbeat IPC: 0.34609 cumulative IPC: 0.37455 (Simulation time: 0 hr 11 min 47 sec) 
Heartbeat CPU  0 instructions:  410000001 cycles:  934230677 heartbeat IPC: 0.36564 cumulative IPC: 0.37452 (Simulation time: 0 hr 11 min 49 sec) 
Heartbeat CPU  0 instructions:  411000000 cycles:  936966011 heartbeat IPC: 0.36559 cumulative IPC: 0.37449 (Simulation time: 0 hr 11 min 51 sec) 
Heartbeat CPU  0 instructions:  412000000 cycles:  939602223 heartbeat IPC: 0.37933 cumulative IPC: 0.37450 (Simulation time: 0 hr 11 min 53 sec) 
Heartbeat CPU  0 instructions:  413000000 cycles:  942386491 heartbeat IPC: 0.35916 cumulative IPC: 0.37445 (Simulation time: 0 hr 11 min 55 sec) 
Heartbeat CPU  0 instructions:  414000000 cycles:  945054633 heartbeat IPC: 0.37479 cumulative IPC: 0.37445 (Simulation time: 0 hr 11 min 57 sec) 
Heartbeat CPU  0 instructions:  415000000 cycles:  947775541 heartbeat IPC: 0.36752 cumulative IPC: 0.37443 (Simulation time: 0 hr 11 min 59 sec) 
Heartbeat CPU  0 instructions:  416000000 cycles:  950544134 heartbeat IPC: 0.36119 cumulative IPC: 0.37439 (Simulation time: 0 hr 12 min 0 sec) 
Heartbeat CPU  0 instructions:  417000003 cycles:  953187623 heartbeat IPC: 0.37829 cumulative IPC: 0.37440 (Simulation time: 0 hr 12 min 2 sec) 
Heartbeat CPU  0 instructions:  418000000 cycles:  955981960 heartbeat IPC: 0.35787 cumulative IPC: 0.37435 (Simulation time: 0 hr 12 min 4 sec) 
Heartbeat CPU  0 instructions:  419000000 cycles:  958784768 heartbeat IPC: 0.35679 cumulative IPC: 0.37429 (Simulation time: 0 hr 12 min 6 sec) 
Heartbeat CPU  0 instructions:  420000000 cycles:  961518762 heartbeat IPC: 0.36577 cumulative IPC: 0.37426 (Simulation time: 0 hr 12 min 8 sec) 
Heartbeat CPU  0 instructions:  421000000 cycles:  964322398 heartbeat IPC: 0.35668 cumulative IPC: 0.37420 (Simulation time: 0 hr 12 min 10 sec) 
Heartbeat CPU  0 instructions:  422000001 cycles:  967035889 heartbeat IPC: 0.36853 cumulative IPC: 0.37419 (Simulation time: 0 hr 12 min 12 sec) 
Heartbeat CPU  0 instructions:  423000000 cycles:  969532370 heartbeat IPC: 0.40056 cumulative IPC: 0.37426 (Simulation time: 0 hr 12 min 14 sec) 
Heartbeat CPU  0 instructions:  424000000 cycles:  971502092 heartbeat IPC: 0.50769 cumulative IPC: 0.37457 (Simulation time: 0 hr 12 min 15 sec) 
Heartbeat CPU  0 instructions:  425000001 cycles:  973920976 heartbeat IPC: 0.41341 cumulative IPC: 0.37467 (Simulation time: 0 hr 12 min 17 sec) 
Heartbeat CPU  0 instructions:  426000001 cycles:  976588589 heartbeat IPC: 0.37487 cumulative IPC: 0.37467 (Simulation time: 0 hr 12 min 19 sec) 
Heartbeat CPU  0 instructions:  427000000 cycles:  979319833 heartbeat IPC: 0.36613 cumulative IPC: 0.37465 (Simulation time: 0 hr 12 min 21 sec) 
Heartbeat CPU  0 instructions:  428000000 cycles:  982172553 heartbeat IPC: 0.35054 cumulative IPC: 0.37457 (Simulation time: 0 hr 12 min 23 sec) 
Heartbeat CPU  0 instructions:  429000001 cycles:  984976967 heartbeat IPC: 0.35658 cumulative IPC: 0.37451 (Simulation time: 0 hr 12 min 25 sec) 
Heartbeat CPU  0 instructions:  430000001 cycles:  987694986 heartbeat IPC: 0.36792 cumulative IPC: 0.37449 (Simulation time: 0 hr 12 min 27 sec) 
Heartbeat CPU  0 instructions:  431000000 cycles:  990384131 heartbeat IPC: 0.37187 cumulative IPC: 0.37448 (Simulation time: 0 hr 12 min 28 sec) 
Heartbeat CPU  0 instructions:  432000000 cycles:  993120528 heartbeat IPC: 0.36544 cumulative IPC: 0.37446 (Simulation time: 0 hr 12 min 30 sec) 
Heartbeat CPU  0 instructions:  433000001 cycles:  995901329 heartbeat IPC: 0.35961 cumulative IPC: 0.37441 (Simulation time: 0 hr 12 min 32 sec) 
Heartbeat CPU  0 instructions:  434000001 cycles:  998567736 heartbeat IPC: 0.37504 cumulative IPC: 0.37441 (Simulation time: 0 hr 12 min 34 sec) 
Heartbeat CPU  0 instructions:  435000000 cycles: 1001298434 heartbeat IPC: 0.36621 cumulative IPC: 0.37439 (Simulation time: 0 hr 12 min 36 sec) 
Heartbeat CPU  0 instructions:  436000000 cycles: 1004075103 heartbeat IPC: 0.36014 cumulative IPC: 0.37434 (Simulation time: 0 hr 12 min 38 sec) 
Heartbeat CPU  0 instructions:  437000000 cycles: 1006742801 heartbeat IPC: 0.37486 cumulative IPC: 0.37434 (Simulation time: 0 hr 12 min 40 sec) 
Heartbeat CPU  0 instructions:  438000000 cycles: 1009537888 heartbeat IPC: 0.35777 cumulative IPC: 0.37429 (Simulation time: 0 hr 12 min 42 sec) 
Heartbeat CPU  0 instructions:  439000003 cycles: 1012321797 heartbeat IPC: 0.35921 cumulative IPC: 0.37425 (Simulation time: 0 hr 12 min 44 sec) 
Heartbeat CPU  0 instructions:  440000000 cycles: 1015082121 heartbeat IPC: 0.36228 cumulative IPC: 0.37421 (Simulation time: 0 hr 12 min 45 sec) 
Heartbeat CPU  0 instructions:  441000001 cycles: 1017838791 heartbeat IPC: 0.36276 cumulative IPC: 0.37417 (Simulation time: 0 hr 12 min 47 sec) 
Heartbeat CPU  0 instructions:  442000000 cycles: 1020565553 heartbeat IPC: 0.36673 cumulative IPC: 0.37415 (Simulation time: 0 hr 12 min 49 sec) 
Heartbeat CPU  0 instructions:  443000002 cycles: 1023142673 heartbeat IPC: 0.38803 cumulative IPC: 0.37419 (Simulation time: 0 hr 12 min 51 sec) 
Heartbeat CPU  0 instructions:  444000000 cycles: 1025790238 heartbeat IPC: 0.37770 cumulative IPC: 0.37420 (Simulation time: 0 hr 12 min 53 sec) 
Heartbeat CPU  0 instructions:  445000000 cycles: 1028594059 heartbeat IPC: 0.35666 cumulative IPC: 0.37415 (Simulation time: 0 hr 12 min 55 sec) 
Heartbeat CPU  0 instructions:  446000003 cycles: 1031354125 heartbeat IPC: 0.36231 cumulative IPC: 0.37411 (Simulation time: 0 hr 12 min 57 sec) 
Heartbeat CPU  0 instructions:  447000002 cycles: 1034113918 heartbeat IPC: 0.36235 cumulative IPC: 0.37408 (Simulation time: 0 hr 12 min 59 sec) 
Heartbeat CPU  0 instructions:  448000000 cycles: 1036525615 heartbeat IPC: 0.41464 cumulative IPC: 0.37418 (Simulation time: 0 hr 13 min 1 sec) 
Heartbeat CPU  0 instructions:  449000000 cycles: 1038629582 heartbeat IPC: 0.47529 cumulative IPC: 0.37441 (Simulation time: 0 hr 13 min 2 sec) 
Heartbeat CPU  0 instructions:  450000000 cycles: 1041305554 heartbeat IPC: 0.37370 cumulative IPC: 0.37441 (Simulation time: 0 hr 13 min 4 sec) 
Heartbeat CPU  0 instructions:  451000000 cycles: 1044033591 heartbeat IPC: 0.36656 cumulative IPC: 0.37439 (Simulation time: 0 hr 13 min 6 sec) 
Heartbeat CPU  0 instructions:  452000000 cycles: 1046743607 heartbeat IPC: 0.36900 cumulative IPC: 0.37437 (Simulation time: 0 hr 13 min 8 sec) 
Heartbeat CPU  0 instructions:  453000000 cycles: 1049421079 heartbeat IPC: 0.37349 cumulative IPC: 0.37437 (Simulation time: 0 hr 13 min 10 sec) 
Heartbeat CPU  0 instructions:  454000001 cycles: 1052154910 heartbeat IPC: 0.36579 cumulative IPC: 0.37434 (Simulation time: 0 hr 13 min 11 sec) 
Heartbeat CPU  0 instructions:  455000000 cycles: 1054890693 heartbeat IPC: 0.36553 cumulative IPC: 0.37432 (Simulation time: 0 hr 13 min 13 sec) 
Heartbeat CPU  0 instructions:  456000000 cycles: 1057556166 heartbeat IPC: 0.37517 cumulative IPC: 0.37432 (Simulation time: 0 hr 13 min 15 sec) 
Heartbeat CPU  0 instructions:  457000003 cycles: 1060314514 heartbeat IPC: 0.36254 cumulative IPC: 0.37429 (Simulation time: 0 hr 13 min 17 sec) 
Heartbeat CPU  0 instructions:  458000003 cycles: 1063036569 heartbeat IPC: 0.36737 cumulative IPC: 0.37427 (Simulation time: 0 hr 13 min 19 sec) 
Heartbeat CPU  0 instructions:  459000001 cycles: 1065845541 heartbeat IPC: 0.35600 cumulative IPC: 0.37421 (Simulation time: 0 hr 13 min 21 sec) 
Heartbeat CPU  0 instructions:  460000000 cycles: 1068586188 heartbeat IPC: 0.36488 cumulative IPC: 0.37419 (Simulation time: 0 hr 13 min 23 sec) 
Heartbeat CPU  0 instructions:  461000002 cycles: 1071280268 heartbeat IPC: 0.37118 cumulative IPC: 0.37418 (Simulation time: 0 hr 13 min 25 sec) 
Heartbeat CPU  0 instructions:  462000003 cycles: 1073899172 heartbeat IPC: 0.38184 cumulative IPC: 0.37420 (Simulation time: 0 hr 13 min 26 sec) 
Heartbeat CPU  0 instructions:  463000001 cycles: 1075880847 heartbeat IPC: 0.50462 cumulative IPC: 0.37447 (Simulation time: 0 hr 13 min 28 sec) 
Heartbeat CPU  0 instructions:  464000000 cycles: 1078793844 heartbeat IPC: 0.34329 cumulative IPC: 0.37437 (Simulation time: 0 hr 13 min 30 sec) 
Heartbeat CPU  0 instructions:  465000001 cycles: 1081622265 heartbeat IPC: 0.35355 cumulative IPC: 0.37431 (Simulation time: 0 hr 13 min 32 sec) 
Heartbeat CPU  0 instructions:  466000000 cycles: 1084073864 heartbeat IPC: 0.40790 cumulative IPC: 0.37440 (Simulation time: 0 hr 13 min 34 sec) 
Heartbeat CPU  0 instructions:  467000000 cycles: 1086720549 heartbeat IPC: 0.37783 cumulative IPC: 0.37441 (Simulation time: 0 hr 13 min 35 sec) 
Heartbeat CPU  0 instructions:  468000000 cycles: 1089439805 heartbeat IPC: 0.36775 cumulative IPC: 0.37439 (Simulation time: 0 hr 13 min 37 sec) 
Heartbeat CPU  0 instructions:  469000001 cycles: 1092148320 heartbeat IPC: 0.36921 cumulative IPC: 0.37437 (Simulation time: 0 hr 13 min 39 sec) 
Heartbeat CPU  0 instructions:  470000001 cycles: 1094864915 heartbeat IPC: 0.36811 cumulative IPC: 0.37436 (Simulation time: 0 hr 13 min 41 sec) 
Heartbeat CPU  0 instructions:  471000000 cycles: 1097488826 heartbeat IPC: 0.38111 cumulative IPC: 0.37437 (Simulation time: 0 hr 13 min 43 sec) 
Heartbeat CPU  0 instructions:  472000000 cycles: 1100261751 heartbeat IPC: 0.36063 cumulative IPC: 0.37434 (Simulation time: 0 hr 13 min 45 sec) 
Heartbeat CPU  0 instructions:  473000002 cycles: 1102944496 heartbeat IPC: 0.37275 cumulative IPC: 0.37433 (Simulation time: 0 hr 13 min 47 sec) 
Heartbeat CPU  0 instructions:  474000001 cycles: 1105684600 heartbeat IPC: 0.36495 cumulative IPC: 0.37431 (Simulation time: 0 hr 13 min 49 sec) 
Heartbeat CPU  0 instructions:  475000002 cycles: 1108459952 heartbeat IPC: 0.36032 cumulative IPC: 0.37427 (Simulation time: 0 hr 13 min 51 sec) 
Heartbeat CPU  0 instructions:  476000000 cycles: 1111178188 heartbeat IPC: 0.36788 cumulative IPC: 0.37425 (Simulation time: 0 hr 13 min 52 sec) 
Heartbeat CPU  0 instructions:  477000001 cycles: 1113969047 heartbeat IPC: 0.35831 cumulative IPC: 0.37421 (Simulation time: 0 hr 13 min 54 sec) 
Heartbeat CPU  0 instructions:  478000001 cycles: 1116685843 heartbeat IPC: 0.36808 cumulative IPC: 0.37419 (Simulation time: 0 hr 13 min 56 sec) 
Heartbeat CPU  0 instructions:  479000002 cycles: 1119374770 heartbeat IPC: 0.37190 cumulative IPC: 0.37418 (Simulation time: 0 hr 13 min 58 sec) 
Heartbeat CPU  0 instructions:  480000000 cycles: 1122176041 heartbeat IPC: 0.35698 cumulative IPC: 0.37414 (Simulation time: 0 hr 14 min 0 sec) 
Heartbeat CPU  0 instructions:  481000000 cycles: 1124992265 heartbeat IPC: 0.35509 cumulative IPC: 0.37408 (Simulation time: 0 hr 14 min 2 sec) 
Heartbeat CPU  0 instructions:  482000002 cycles: 1126942754 heartbeat IPC: 0.51269 cumulative IPC: 0.37435 (Simulation time: 0 hr 14 min 3 sec) 
Heartbeat CPU  0 instructions:  483000003 cycles: 1129771498 heartbeat IPC: 0.35351 cumulative IPC: 0.37429 (Simulation time: 0 hr 14 min 5 sec) 
Heartbeat CPU  0 instructions:  484000000 cycles: 1132551025 heartbeat IPC: 0.35977 cumulative IPC: 0.37425 (Simulation time: 0 hr 14 min 7 sec) 
Heartbeat CPU  0 instructions:  485000001 cycles: 1135397572 heartbeat IPC: 0.35130 cumulative IPC: 0.37419 (Simulation time: 0 hr 14 min 9 sec) 
Heartbeat CPU  0 instructions:  486000000 cycles: 1138117399 heartbeat IPC: 0.36767 cumulative IPC: 0.37417 (Simulation time: 0 hr 14 min 11 sec) 
Heartbeat CPU  0 instructions:  487000002 cycles: 1140504338 heartbeat IPC: 0.41895 cumulative IPC: 0.37427 (Simulation time: 0 hr 14 min 13 sec) 
Heartbeat CPU  0 instructions:  488000000 cycles: 1143334715 heartbeat IPC: 0.35331 cumulative IPC: 0.37422 (Simulation time: 0 hr 14 min 15 sec) 
Heartbeat CPU  0 instructions:  489000001 cycles: 1146142433 heartbeat IPC: 0.35616 cumulative IPC: 0.37417 (Simulation time: 0 hr 14 min 17 sec) 
Heartbeat CPU  0 instructions:  490000001 cycles: 1148791350 heartbeat IPC: 0.37751 cumulative IPC: 0.37418 (Simulation time: 0 hr 14 min 19 sec) 
Heartbeat CPU  0 instructions:  491000001 cycles: 1151497774 heartbeat IPC: 0.36949 cumulative IPC: 0.37416 (Simulation time: 0 hr 14 min 20 sec) 
Heartbeat CPU  0 instructions:  492000000 cycles: 1154193132 heartbeat IPC: 0.37101 cumulative IPC: 0.37416 (Simulation time: 0 hr 14 min 22 sec) 
Heartbeat CPU  0 instructions:  493000000 cycles: 1156979399 heartbeat IPC: 0.35890 cumulative IPC: 0.37412 (Simulation time: 0 hr 14 min 24 sec) 
Heartbeat CPU  0 instructions:  494000000 cycles: 1159694986 heartbeat IPC: 0.36824 cumulative IPC: 0.37410 (Simulation time: 0 hr 14 min 26 sec) 
Heartbeat CPU  0 instructions:  495000000 cycles: 1162510415 heartbeat IPC: 0.35519 cumulative IPC: 0.37405 (Simulation time: 0 hr 14 min 28 sec) 
Heartbeat CPU  0 instructions:  496000000 cycles: 1165231572 heartbeat IPC: 0.36749 cumulative IPC: 0.37403 (Simulation time: 0 hr 14 min 30 sec) 
Heartbeat CPU  0 instructions:  497000000 cycles: 1167929167 heartbeat IPC: 0.37070 cumulative IPC: 0.37402 (Simulation time: 0 hr 14 min 32 sec) 
Heartbeat CPU  0 instructions:  498000001 cycles: 1170181050 heartbeat IPC: 0.44407 cumulative IPC: 0.37417 (Simulation time: 0 hr 14 min 33 sec) 
Heartbeat CPU  0 instructions:  499000001 cycles: 1172551233 heartbeat IPC: 0.42191 cumulative IPC: 0.37428 (Simulation time: 0 hr 14 min 35 sec) 
Heartbeat CPU  0 instructions:  500000000 cycles: 1174956003 heartbeat IPC: 0.41584 cumulative IPC: 0.37437 (Simulation time: 0 hr 14 min 37 sec) 
Heartbeat CPU  0 instructions:  501000001 cycles: 1177662477 heartbeat IPC: 0.36948 cumulative IPC: 0.37436 (Simulation time: 0 hr 14 min 39 sec) 
Heartbeat CPU  0 instructions:  502000003 cycles: 1180475345 heartbeat IPC: 0.35551 cumulative IPC: 0.37431 (Simulation time: 0 hr 14 min 41 sec) 
Heartbeat CPU  0 instructions:  503000000 cycles: 1182470029 heartbeat IPC: 0.50133 cumulative IPC: 0.37455 (Simulation time: 0 hr 14 min 43 sec) 
Heartbeat CPU  0 instructions:  504000000 cycles: 1183610455 heartbeat IPC: 0.87687 cumulative IPC: 0.37508 (Simulation time: 0 hr 14 min 45 sec) 
Heartbeat CPU  0 instructions:  505000003 cycles: 1186698700 heartbeat IPC: 0.32381 cumulative IPC: 0.37493 (Simulation time: 0 hr 14 min 48 sec) 
Heartbeat CPU  0 instructions:  506000003 cycles: 1190569747 heartbeat IPC: 0.25833 cumulative IPC: 0.37451 (Simulation time: 0 hr 14 min 52 sec) 
Heartbeat CPU  0 instructions:  507000003 cycles: 1194914542 heartbeat IPC: 0.23016 cumulative IPC: 0.37394 (Simulation time: 0 hr 14 min 56 sec) 
Heartbeat CPU  0 instructions:  508000000 cycles: 1202293399 heartbeat IPC: 0.13552 cumulative IPC: 0.37233 (Simulation time: 0 hr 15 min 2 sec) 
Heartbeat CPU  0 instructions:  509000003 cycles: 1211340542 heartbeat IPC: 0.11053 cumulative IPC: 0.37019 (Simulation time: 0 hr 15 min 9 sec) 
Heartbeat CPU  0 instructions:  510000003 cycles: 1220836128 heartbeat IPC: 0.10531 cumulative IPC: 0.36793 (Simulation time: 0 hr 15 min 15 sec) 
Heartbeat CPU  0 instructions:  511000001 cycles: 1231552799 heartbeat IPC: 0.09331 cumulative IPC: 0.36532 (Simulation time: 0 hr 15 min 23 sec) 
Heartbeat CPU  0 instructions:  512000000 cycles: 1245473033 heartbeat IPC: 0.07184 cumulative IPC: 0.36173 (Simulation time: 0 hr 15 min 32 sec) 
Heartbeat CPU  0 instructions:  513000003 cycles: 1259644626 heartbeat IPC: 0.07056 cumulative IPC: 0.35815 (Simulation time: 0 hr 15 min 41 sec) 
Heartbeat CPU  0 instructions:  514000002 cycles: 1266703629 heartbeat IPC: 0.14166 cumulative IPC: 0.35683 (Simulation time: 0 hr 15 min 47 sec) 
Heartbeat CPU  0 instructions:  515000002 cycles: 1271460909 heartbeat IPC: 0.21020 cumulative IPC: 0.35624 (Simulation time: 0 hr 15 min 51 sec) 
Heartbeat CPU  0 instructions:  516000000 cycles: 1276176612 heartbeat IPC: 0.21206 cumulative IPC: 0.35565 (Simulation time: 0 hr 15 min 55 sec) 
Heartbeat CPU  0 instructions:  517000002 cycles: 1280947869 heartbeat IPC: 0.20959 cumulative IPC: 0.35506 (Simulation time: 0 hr 16 min 0 sec) 
Heartbeat CPU  0 instructions:  518000002 cycles: 1290192909 heartbeat IPC: 0.10817 cumulative IPC: 0.35313 (Simulation time: 0 hr 16 min 6 sec) 
Heartbeat CPU  0 instructions:  519000002 cycles: 1299837890 heartbeat IPC: 0.10368 cumulative IPC: 0.35112 (Simulation time: 0 hr 16 min 13 sec) 
Heartbeat CPU  0 instructions:  520000000 cycles: 1309237999 heartbeat IPC: 0.10638 cumulative IPC: 0.34920 (Simulation time: 0 hr 16 min 20 sec) 
Heartbeat CPU  0 instructions:  521000000 cycles: 1321725398 heartbeat IPC: 0.08008 cumulative IPC: 0.34644 (Simulation time: 0 hr 16 min 28 sec) 
Heartbeat CPU  0 instructions:  522000002 cycles: 1336050836 heartbeat IPC: 0.06981 cumulative IPC: 0.34321 (Simulation time: 0 hr 16 min 38 sec) 
Heartbeat CPU  0 instructions:  523000000 cycles: 1348116849 heartbeat IPC: 0.08288 cumulative IPC: 0.34068 (Simulation time: 0 hr 16 min 46 sec) 
Heartbeat CPU  0 instructions:  524000000 cycles: 1351116838 heartbeat IPC: 0.33333 cumulative IPC: 0.34067 (Simulation time: 0 hr 16 min 49 sec) 
Heartbeat CPU  0 instructions:  525000002 cycles: 1353688614 heartbeat IPC: 0.38884 cumulative IPC: 0.34077 (Simulation time: 0 hr 16 min 50 sec) 
Heartbeat CPU  0 instructions:  526000000 cycles: 1356017808 heartbeat IPC: 0.42933 cumulative IPC: 0.34093 (Simulation time: 0 hr 16 min 52 sec) 
Heartbeat CPU  0 instructions:  527000001 cycles: 1358806438 heartbeat IPC: 0.35860 cumulative IPC: 0.34097 (Simulation time: 0 hr 16 min 54 sec) 
Heartbeat CPU  0 instructions:  528000000 cycles: 1361077220 heartbeat IPC: 0.44038 cumulative IPC: 0.34115 (Simulation time: 0 hr 16 min 56 sec) 
Heartbeat CPU  0 instructions:  529000000 cycles: 1363041761 heartbeat IPC: 0.50902 cumulative IPC: 0.34141 (Simulation time: 0 hr 16 min 57 sec) 
Heartbeat CPU  0 instructions:  530000003 cycles: 1365857783 heartbeat IPC: 0.35511 cumulative IPC: 0.34144 (Simulation time: 0 hr 16 min 59 sec) 
Heartbeat CPU  0 instructions:  531000001 cycles: 1368276664 heartbeat IPC: 0.41341 cumulative IPC: 0.34158 (Simulation time: 0 hr 17 min 1 sec) 
Heartbeat CPU  0 instructions:  532000000 cycles: 1370740113 heartbeat IPC: 0.40593 cumulative IPC: 0.34171 (Simulation time: 0 hr 17 min 3 sec) 
Heartbeat CPU  0 instructions:  533000002 cycles: 1373488026 heartbeat IPC: 0.36391 cumulative IPC: 0.34176 (Simulation time: 0 hr 17 min 5 sec) 
Heartbeat CPU  0 instructions:  534000000 cycles: 1375848761 heartbeat IPC: 0.42360 cumulative IPC: 0.34191 (Simulation time: 0 hr 17 min 7 sec) 
Heartbeat CPU  0 instructions:  535000000 cycles: 1377945660 heartbeat IPC: 0.47689 cumulative IPC: 0.34213 (Simulation time: 0 hr 17 min 8 sec) 
Heartbeat CPU  0 instructions:  536000000 cycles: 1380522102 heartbeat IPC: 0.38813 cumulative IPC: 0.34222 (Simulation time: 0 hr 17 min 10 sec) 
Heartbeat CPU  0 instructions:  537000001 cycles: 1382906489 heartbeat IPC: 0.41940 cumulative IPC: 0.34237 (Simulation time: 0 hr 17 min 12 sec) 
Heartbeat CPU  0 instructions:  538000001 cycles: 1385430301 heartbeat IPC: 0.39623 cumulative IPC: 0.34247 (Simulation time: 0 hr 17 min 14 sec) 
Heartbeat CPU  0 instructions:  539000000 cycles: 1387934140 heartbeat IPC: 0.39939 cumulative IPC: 0.34259 (Simulation time: 0 hr 17 min 16 sec) 
Heartbeat CPU  0 instructions:  540000000 cycles: 1390583230 heartbeat IPC: 0.37749 cumulative IPC: 0.34266 (Simulation time: 0 hr 17 min 18 sec) 
Heartbeat CPU  0 instructions:  541000001 cycles: 1393071323 heartbeat IPC: 0.40191 cumulative IPC: 0.34277 (Simulation time: 0 hr 17 min 20 sec) 
Heartbeat CPU  0 instructions:  542000002 cycles: 1395418876 heartbeat IPC: 0.42598 cumulative IPC: 0.34292 (Simulation time: 0 hr 17 min 22 sec) 
Heartbeat CPU  0 instructions:  543000003 cycles: 1397998687 heartbeat IPC: 0.38763 cumulative IPC: 0.34301 (Simulation time: 0 hr 17 min 24 sec) 
Heartbeat CPU  0 instructions:  544000000 cycles: 1400547813 heartbeat IPC: 0.39229 cumulative IPC: 0.34311 (Simulation time: 0 hr 17 min 26 sec) 
Heartbeat CPU  0 instructions:  545000000 cycles: 1402750038 heartbeat IPC: 0.45409 cumulative IPC: 0.34330 (Simulation time: 0 hr 17 min 27 sec) 
Heartbeat CPU  0 instructions:  546000000 cycles: 1405062540 heartbeat IPC: 0.43243 cumulative IPC: 0.34346 (Simulation time: 0 hr 17 min 29 sec) 
Heartbeat CPU  0 instructions:  547000000 cycles: 1407510194 heartbeat IPC: 0.40855 cumulative IPC: 0.34358 (Simulation time: 0 hr 17 min 31 sec) 
Heartbeat CPU  0 instructions:  548000000 cycles: 1410166502 heartbeat IPC: 0.37646 cumulative IPC: 0.34365 (Simulation time: 0 hr 17 min 33 sec) 
Heartbeat CPU  0 instructions:  549000000 cycles: 1412754735 heartbeat IPC: 0.38636 cumulative IPC: 0.34373 (Simulation time: 0 hr 17 min 35 sec) 
Heartbeat CPU  0 instructions:  550000001 cycles: 1415357278 heartbeat IPC: 0.38424 cumulative IPC: 0.34381 (Simulation time: 0 hr 17 min 36 sec) 
Heartbeat CPU  0 instructions:  551000001 cycles: 1417999095 heartbeat IPC: 0.37853 cumulative IPC: 0.34388 (Simulation time: 0 hr 17 min 38 sec) 
Heartbeat CPU  0 instructions:  552000000 cycles: 1420631427 heartbeat IPC: 0.37989 cumulative IPC: 0.34395 (Simulation time: 0 hr 17 min 40 sec) 
Heartbeat CPU  0 instructions:  553000002 cycles: 1423197349 heartbeat IPC: 0.38972 cumulative IPC: 0.34404 (Simulation time: 0 hr 17 min 42 sec) 
Heartbeat CPU  0 instructions:  554000000 cycles: 1425853008 heartbeat IPC: 0.37655 cumulative IPC: 0.34411 (Simulation time: 0 hr 17 min 44 sec) 
Heartbeat CPU  0 instructions:  555000000 cycles: 1428607215 heartbeat IPC: 0.36308 cumulative IPC: 0.34415 (Simulation time: 0 hr 17 min 46 sec) 
Heartbeat CPU  0 instructions:  556000000 cycles: 1431118829 heartbeat IPC: 0.39815 cumulative IPC: 0.34425 (Simulation time: 0 hr 17 min 48 sec) 
Heartbeat CPU  0 instructions:  557000000 cycles: 1433845882 heartbeat IPC: 0.36670 cumulative IPC: 0.34430 (Simulation time: 0 hr 17 min 50 sec) 
Heartbeat CPU  0 instructions:  558000000 cycles: 1436472054 heartbeat IPC: 0.38078 cumulative IPC: 0.34437 (Simulation time: 0 hr 17 min 52 sec) 
Heartbeat CPU  0 instructions:  559000000 cycles: 1439202857 heartbeat IPC: 0.36619 cumulative IPC: 0.34441 (Simulation time: 0 hr 17 min 54 sec) 
Heartbeat CPU  0 instructions:  560000000 cycles: 1441917934 heartbeat IPC: 0.36831 cumulative IPC: 0.34446 (Simulation time: 0 hr 17 min 55 sec) 
Heartbeat CPU  0 instructions:  561000001 cycles: 1444560369 heartbeat IPC: 0.37844 cumulative IPC: 0.34453 (Simulation time: 0 hr 17 min 57 sec) 
Heartbeat CPU  0 instructions:  562000000 cycles: 1447234690 heartbeat IPC: 0.37393 cumulative IPC: 0.34459 (Simulation time: 0 hr 17 min 59 sec) 
Heartbeat CPU  0 instructions:  563000001 cycles: 1450004021 heartbeat IPC: 0.36110 cumulative IPC: 0.34462 (Simulation time: 0 hr 18 min 1 sec) 
Heartbeat CPU  0 instructions:  564000000 cycles: 1452487729 heartbeat IPC: 0.40262 cumulative IPC: 0.34473 (Simulation time: 0 hr 18 min 3 sec) 
Heartbeat CPU  0 instructions:  565000002 cycles: 1455193555 heartbeat IPC: 0.36957 cumulative IPC: 0.34478 (Simulation time: 0 hr 18 min 5 sec) 
Heartbeat CPU  0 instructions:  566000000 cycles: 1457795672 heartbeat IPC: 0.38430 cumulative IPC: 0.34485 (Simulation time: 0 hr 18 min 7 sec) 
Heartbeat CPU  0 instructions:  567000003 cycles: 1460443379 heartbeat IPC: 0.37769 cumulative IPC: 0.34492 (Simulation time: 0 hr 18 min 9 sec) 
Heartbeat CPU  0 instructions:  568000000 cycles: 1463108819 heartbeat IPC: 0.37517 cumulative IPC: 0.34498 (Simulation time: 0 hr 18 min 11 sec) 
Heartbeat CPU  0 instructions:  569000002 cycles: 1465910945 heartbeat IPC: 0.35687 cumulative IPC: 0.34500 (Simulation time: 0 hr 18 min 13 sec) 
Heartbeat CPU  0 instructions:  570000001 cycles: 1468631898 heartbeat IPC: 0.36752 cumulative IPC: 0.34505 (Simulation time: 0 hr 18 min 14 sec) 
Heartbeat CPU  0 instructions:  571000001 cycles: 1471341777 heartbeat IPC: 0.36902 cumulative IPC: 0.34510 (Simulation time: 0 hr 18 min 16 sec) 
Heartbeat CPU  0 instructions:  572000000 cycles: 1474118729 heartbeat IPC: 0.36011 cumulative IPC: 0.34513 (Simulation time: 0 hr 18 min 18 sec) 
Heartbeat CPU  0 instructions:  573000000 cycles: 1476855544 heartbeat IPC: 0.36539 cumulative IPC: 0.34517 (Simulation time: 0 hr 18 min 20 sec) 
Heartbeat CPU  0 instructions:  574000000 cycles: 1479628594 heartbeat IPC: 0.36061 cumulative IPC: 0.34520 (Simulation time: 0 hr 18 min 22 sec) 
Heartbeat CPU  0 instructions:  575000002 cycles: 1482400809 heartbeat IPC: 0.36072 cumulative IPC: 0.34523 (Simulation time: 0 hr 18 min 24 sec) 
Heartbeat CPU  0 instructions:  576000000 cycles: 1485091087 heartbeat IPC: 0.37171 cumulative IPC: 0.34528 (Simulation time: 0 hr 18 min 26 sec) 
Heartbeat CPU  0 instructions:  577000002 cycles: 1487811099 heartbeat IPC: 0.36765 cumulative IPC: 0.34532 (Simulation time: 0 hr 18 min 28 sec) 
Heartbeat CPU  0 instructions:  578000001 cycles: 1490391979 heartbeat IPC: 0.38746 cumulative IPC: 0.34540 (Simulation time: 0 hr 18 min 30 sec) 
Heartbeat CPU  0 instructions:  579000002 cycles: 1493073401 heartbeat IPC: 0.37294 cumulative IPC: 0.34546 (Simulation time: 0 hr 18 min 32 sec) 
Heartbeat CPU  0 instructions:  580000000 cycles: 1495745771 heartbeat IPC: 0.37420 cumulative IPC: 0.34551 (Simulation time: 0 hr 18 min 34 sec) 
Heartbeat CPU  0 instructions:  581000003 cycles: 1498401740 heartbeat IPC: 0.37651 cumulative IPC: 0.34557 (Simulation time: 0 hr 18 min 36 sec) 
Heartbeat CPU  0 instructions:  582000001 cycles: 1501150297 heartbeat IPC: 0.36383 cumulative IPC: 0.34561 (Simulation time: 0 hr 18 min 38 sec) 
Heartbeat CPU  0 instructions:  583000000 cycles: 1503792833 heartbeat IPC: 0.37842 cumulative IPC: 0.34567 (Simulation time: 0 hr 18 min 40 sec) 
Heartbeat CPU  0 instructions:  584000000 cycles: 1506412528 heartbeat IPC: 0.38172 cumulative IPC: 0.34574 (Simulation time: 0 hr 18 min 41 sec) 
Heartbeat CPU  0 instructions:  585000002 cycles: 1509134803 heartbeat IPC: 0.36734 cumulative IPC: 0.34578 (Simulation time: 0 hr 18 min 43 sec) 
Heartbeat CPU  0 instructions:  586000000 cycles: 1511825510 heartbeat IPC: 0.37165 cumulative IPC: 0.34583 (Simulation time: 0 hr 18 min 45 sec) 
Heartbeat CPU  0 instructions:  587000000 cycles: 1514365580 heartbeat IPC: 0.39369 cumulative IPC: 0.34591 (Simulation time: 0 hr 18 min 47 sec) 
Heartbeat CPU  0 instructions:  588000000 cycles: 1517004619 heartbeat IPC: 0.37893 cumulative IPC: 0.34598 (Simulation time: 0 hr 18 min 49 sec) 
Heartbeat CPU  0 instructions:  589000002 cycles: 1519561832 heartbeat IPC: 0.39105 cumulative IPC: 0.34606 (Simulation time: 0 hr 18 min 51 sec) 
Heartbeat CPU  0 instructions:  590000000 cycles: 1522173085 heartbeat IPC: 0.38296 cumulative IPC: 0.34613 (Simulation time: 0 hr 18 min 53 sec) 
Heartbeat CPU  0 instructions:  591000000 cycles: 1524632331 heartbeat IPC: 0.40663 cumulative IPC: 0.34623 (Simulation time: 0 hr 18 min 55 sec) 
Heartbeat CPU  0 instructions:  592000000 cycles: 1527336851 heartbeat IPC: 0.36975 cumulative IPC: 0.34627 (Simulation time: 0 hr 18 min 57 sec) 
Heartbeat CPU  0 instructions:  593000001 cycles: 1530011360 heartbeat IPC: 0.37390 cumulative IPC: 0.34633 (Simulation time: 0 hr 18 min 58 sec) 
Heartbeat CPU  0 instructions:  594000000 cycles: 1532593339 heartbeat IPC: 0.38730 cumulative IPC: 0.34640 (Simulation time: 0 hr 19 min 0 sec) 
Heartbeat CPU  0 instructions:  595000002 cycles: 1535347723 heartbeat IPC: 0.36306 cumulative IPC: 0.34643 (Simulation time: 0 hr 19 min 2 sec) 
Heartbeat CPU  0 instructions:  596000000 cycles: 1537713517 heartbeat IPC: 0.42269 cumulative IPC: 0.34656 (Simulation time: 0 hr 19 min 4 sec) 
Heartbeat CPU  0 instructions:  597000000 cycles: 1540145864 heartbeat IPC: 0.41113 cumulative IPC: 0.34667 (Simulation time: 0 hr 19 min 6 sec) 
Heartbeat CPU  0 instructions:  598000000 cycles: 1542638285 heartbeat IPC: 0.40122 cumulative IPC: 0.34676 (Simulation time: 0 hr 19 min 7 sec) 
Heartbeat CPU  0 instructions:  599000001 cycles: 1545315871 heartbeat IPC: 0.37347 cumulative IPC: 0.34681 (Simulation time: 0 hr 19 min 9 sec) 
Heartbeat CPU  0 instructions:  600000000 cycles: 1547911671 heartbeat IPC: 0.38524 cumulative IPC: 0.34688 (Simulation time: 0 hr 19 min 11 sec) 
Finished CPU 0 instructions: 500000000 cycles: 1441411310 cumulative IPC: 0.34688 (Simulation time: 0 hr 19 min 11 sec) 

ChampSim completed all CPUs

[ROI Statistics]
Core_0_instructions 500000000
Core_0_cycles 1441411310
Core_0_IPC 0.34688

Core_0_branch_prediction_accuracy 85.44512
Core_0_branch_MPKI 23.17008
Core_0_average_ROB_occupancy_at_mispredict 40.38882

Core_0_L1D_total_access 158187498
Core_0_L1D_total_hit 156120067
Core_0_L1D_total_miss 2067431
Core_0_L1D_loads 90871848
Core_0_L1D_load_hit 90159216
Core_0_L1D_load_miss 712632
Core_0_L1D_RFOs 67315650
Core_0_L1D_RFO_hit 65960851
Core_0_L1D_RFO_miss 1354799
Core_0_L1D_prefetches 0
Core_0_L1D_prefetch_hit 0
Core_0_L1D_prefetch_miss 0
Core_0_L1D_writebacks 0
Core_0_L1D_writeback_hit 0
Core_0_L1D_writeback_miss 0
Core_0_L1D_prefetch_requested 0
Core_0_L1D_prefetch_dropped 0
Core_0_L1D_prefetch_issued 0
Core_0_L1D_prefetch_filled 0
Core_0_L1D_prefetch_useful 0
Core_0_L1D_prefetch_useless 0
Core_0_L1D_prefetch_late 0
Core_0_L1D_average_miss_latency 1309.84402

Core_0_L1D_rq_access 127065004
Core_0_L1D_rq_forward 0
Core_0_L1D_rq_merged 36059545
Core_0_L1D_rq_to_cache 91005076
Core_0_L1D_rq_full 0

Core_0_L1D_wq_access 71549319
Core_0_L1D_wq_forward 383
Core_0_L1D_wq_merged 408786
Core_0_L1D_wq_to_cache 71140533
Core_0_L1D_wq_full 156874774

Core_0_L1D_pq_access 0
Core_0_L1D_pq_forward 0
Core_0_L1D_pq_merged 0
Core_0_L1D_pq_to_cache 0
Core_0_L1D_pq_full 0

Core_0_L1D_acc_epochs 1506058
Core_0_L1D_acc_level_0 1506058
Core_0_L1D_acc_level_1 0
Core_0_L1D_acc_level_2 0
Core_0_L1D_acc_level_3 0
Core_0_L1D_acc_level_4 0
Core_0_L1D_acc_level_5 0
Core_0_L1D_acc_level_6 0
Core_0_L1D_acc_level_7 0
Core_0_L1D_acc_level_8 0
Core_0_L1D_acc_level_9 0

Core_0_L1I_total_access 98000129
Core_0_L1I_total_hit 96380569
Core_0_L1I_total_miss 1619560
Core_0_L1I_loads 98000129
Core_0_L1I_load_hit 96380569
Core_0_L1I_load_miss 1619560
Core_0_L1I_RFOs 0
Core_0_L1I_RFO_hit 0
Core_0_L1I_RFO_miss 0
Core_0_L1I_prefetches 0
Core_0_L1I_prefetch_hit 0
Core_0_L1I_prefetch_miss 0
Core_0_L1I_writebacks 0
Core_0_L1I_writeback_hit 0
Core_0_L1I_writeback_miss 0
Core_0_L1I_prefetch_requested 0
Core_0_L1I_prefetch_dropped 0
Core_0_L1I_prefetch_issued 0
Core_0_L1I_prefetch_filled 0
Core_0_L1I_prefetch_useful 0
Core_0_L1I_prefetch_useless 0
Core_0_L1I_prefetch_late 0
Core_0_L1I_average_miss_latency 12.58954

Core_0_L1I_rq_access 499999979
Core_0_L1I_rq_forward 0
Core_0_L1I_rq_merged 401419639
Core_0_L1I_rq_to_cache 98580340
Core_0_L1I_rq_full 0

Core_0_L1I_wq_access 0
Core_0_L1I_wq_forward 0
Core_0_L1I_wq_merged 0
Core_0_L1I_wq_to_cache 0
Core_0_L1I_wq_full 0

Core_0_L1I_pq_access 0
Core_0_L1I_pq_forward 0
Core_0_L1I_pq_merged 0
Core_0_L1I_pq_to_cache 0
Core_0_L1I_pq_full 0

Core_0_L1I_acc_epochs 1506058
Core_0_L1I_acc_level_0 1506058
Core_0_L1I_acc_level_1 0
Core_0_L1I_acc_level_2 0
Core_0_L1I_acc_level_3 0
Core_0_L1I_acc_level_4 0
Core_0_L1I_acc_level_5 0
Core_0_L1I_acc_level_6 0
Core_0_L1I_acc_level_7 0
Core_0_L1I_acc_level_8 0
Core_0_L1I_acc_level_9 0

Core_0_L2C_total_access 5772169
Core_0_L2C_total_hit 4522597
Core_0_L2C_total_miss 1249572
Core_0_L2C_loads 2332186
Core_0_L2C_load_hit 2107901
Core_0_L2C_load_miss 224285
Core_0_L2C_RFOs 1354771
Core_0_L2C_RFO_hit 531029
Core_0_L2C_RFO_miss 823742
Core_0_L2C_prefetches 489943
Core_0_L2C_prefetch_hit 291388
Core_0_L2C_prefetch_miss 198555
Core_0_L2C_writebacks 1595269
Core_0_L2C_writeback_hit 1592279
Core_0_L2C_writeback_miss 2990
Core_0_L2C_prefetch_requested 1345110
Core_0_L2C_prefetch_dropped 0
Core_0_L2C_prefetch_issued 1345110
Core_0_L2C_prefetch_filled 285842
Core_0_L2C_prefetch_useful 217709
Core_0_L2C_prefetch_useless 67930
Core_0_L2C_prefetch_late 4336
Core_0_L2C_average_miss_latency 2213.48506

Core_0_L2C_rq_access 3686991
Core_0_L2C_rq_forward 0
Core_0_L2C_rq_merged 0
Core_0_L2C_rq_to_cache 3686957
Core_0_L2C_rq_full 0

Core_0_L2C_wq_access 1595269
Core_0_L2C_wq_forward 34
Core_0_L2C_wq_merged 0
Core_0_L2C_wq_to_cache 1595269
Core_0_L2C_wq_full 0

Core_0_L2C_pq_access 1345110
Core_0_L2C_pq_forward 0
Core_0_L2C_pq_merged 0
Core_0_L2C_pq_to_cache 1345110
Core_0_L2C_pq_full 0

Core_0_L2C_acc_epochs 1506058
Core_0_L2C_acc_level_0 1460792
Core_0_L2C_acc_level_1 14413
Core_0_L2C_acc_level_2 11701
Core_0_L2C_acc_level_3 2308
Core_0_L2C_acc_level_4 1319
Core_0_L2C_acc_level_5 8979
Core_0_L2C_acc_level_6 896
Core_0_L2C_acc_level_7 822
Core_0_L2C_acc_level_8 562
Core_0_L2C_acc_level_9 4266

Core_0_LLC_total_access 2794097
Core_0_LLC_total_hit 773115
Core_0_LLC_total_miss 2020982
Core_0_LLC_loads 220102
Core_0_LLC_load_hit 107051
Core_0_LLC_load_miss 113051
Core_0_LLC_RFOs 823729
Core_0_LLC_RFO_hit 84143
Core_0_LLC_RFO_miss 739586
Core_0_LLC_prefetches 768357
Core_0_LLC_prefetch_hit 298000
Core_0_LLC_prefetch_miss 470357
Core_0_LLC_writebacks 981909
Core_0_LLC_writeback_hit 283921
Core_0_LLC_writeback_miss 697988
Core_0_LLC_prefetch_requested 0
Core_0_LLC_prefetch_dropped 0
Core_0_LLC_prefetch_issued 0
Core_0_LLC_prefetch_filled 565795
Core_0_LLC_prefetch_useful 47131
Core_0_LLC_prefetch_useless 497702
Core_0_LLC_prefetch_late 121
Core_0_LLC_average_miss_latency 1478.65099

Core_0_LLC_rq_access 1043832
Core_0_LLC_rq_forward 0
Core_0_LLC_rq_merged 0
Core_0_LLC_rq_to_cache 1043831
Core_0_LLC_rq_full 0

Core_0_LLC_wq_access 981909
Core_0_LLC_wq_forward 1
Core_0_LLC_wq_merged 0
Core_0_LLC_wq_to_cache 981909
Core_0_LLC_wq_full 0

Core_0_LLC_pq_access 975422
Core_0_LLC_pq_forward 0
Core_0_LLC_pq_merged 0
Core_0_LLC_pq_to_cache 975422
Core_0_LLC_pq_full 0

Core_0_LLC_acc_epochs 1511633
Core_0_LLC_acc_level_0 1467973
Core_0_LLC_acc_level_1 24695
Core_0_LLC_acc_level_2 11659
Core_0_LLC_acc_level_3 796
Core_0_LLC_acc_level_4 55
Core_0_LLC_acc_level_5 5753
Core_0_LLC_acc_level_6 47
Core_0_LLC_acc_level_7 73
Core_0_LLC_acc_level_8 15
Core_0_LLC_acc_level_9 567

Core_0_major_page_fault 0
Core_0_minor_page_fault 6504

[Bingo] PHT Access: 224498
[Bingo] PHT Hit PC+Addr: 57160
[Bingo] PHT Hit PC+Offs: 146335
[Bingo] PHT Miss: 21003
[Bingo] Prefetch PC+Addr: 0
[Bingo] Prefetch PC+Offs: 0
[Bingo] Useful PC+Addr: 0
[Bingo] Useful PC+Offs: 0
[Bingo] Useless PC+Addr: 0
[Bingo] Useless PC+Offs: 0
[Bingo] L1 Prefetch per Region: 0.00000
[Bingo] L2 Prefetch per Region: 4.18398
[Bingo] L3 Prefetch per Region: 3.44812
[Bingo] No Prefetch per Region: 24.36790
[Bingo] Number of Voters Mean: 6.23438
[Bingo] Number of Voters SD: 3.24800

Channel_0_RQ_row_buffer_hit 307044
Channel_0_RQ_row_buffer_miss 1015948
Channel_0_WQ_row_buffer_hit 92438
Channel_0_WQ_row_buffer_miss 781887
Channel_0_WQ_full 0
Channel_0_dbus_congested 1945319

avg_congested_cycle 103

DRAM_bw_pochs 6046531
DRAM_bw_level_0 5288156
DRAM_bw_level_1 213193
DRAM_bw_level_2 0
DRAM_bw_level_3 545182
