*************************************************
   ChampSim Multicore Out-of-Order Simulator
   Last compiled: Dec 11 2024 17:59:53
*************************************************
parsing config file: /home/functionmain/桌面/Pythia/config/spp_dev2.ini

trace_0 /home/functionmain/桌面/Pythia/traces/445.gobmk-30B.champsimtrace.xz
adding L2C_PREFETCHER: SPP_dev2
Initialize SIGNATURE TABLE
ST_SET: 1
ST_WAY: 256
ST_TAG_BIT: 16
ST_TAG_MASK: ffff

Initialize PATTERN TABLE
PT_SET: 512
PT_WAY: 4
SIG_DELTA_BIT: 7
C_SIG_BIT: 4
C_DELTA_BIT: 4

Initialize PREFETCH FILTER
FILTER_SET: 1024
fill_threshold: 90
pf_threshold: 40

Initialize SHIP state
warmup_instructions 100000000
simulation_instructions 500000000
champsim_seed 165
measure_ipc 0
measure_ipc_epoch 1000
measure_dram_bw 1
measure_dram_bw_epoch 256
measure_cache_acc 1
measure_cache_acc_epoch 1024
l1d_perfect 0
l2c_perfect 0
llc_perfect 0
l1d_semi_perfect 0
l2c_semi_perfect 0
llc_semi_perfect 0
semi_perfect_cache_page_buffer_size 64

num_cpus 1
cpu_freq 4000
dram_io_freq 150
page_size 4096
block_size 64
max_read_per_cycle 8
max_fill_per_cycle 1
dram_channels 1
log2_dram_channels 0
dram_ranks 1
dram_banks 8
dram_rows 65536
dram_columns 128
dram_row_size 8
dram_size 4096
dram_pages 1048576

fetch_width 6
decode_width 6
exec_width 4
lq_width 2
sq_width 2
retire_width 4
scheduler_size 128
branch_mispredict_penalty 20
rob_size 256
lq_size 72
sq_size 56
num_instr_destinations_sparc 4
num_instr_destinations 2
num_instr_sources 4

itlb_set 16
itlb_way 8
itlb_rq_size 16
itlb_wq_size 16
itlb_pq_size 0
itlb_mshr_size 8
itlb_latency 1

dtlb_set 16
dtlb_way 4
dtlb_rq_size 16
dtlb_wq_size 16
dtlb_pq_size 0
dtlb_mshr_size 8
dtlb_latency 1

stlb_set 128
stlb_way 12
stlb_rq_size 32
stlb_wq_size 32
stlb_pq_size 0
stlb_mshr_size 16
stlb_latency 8

l1i_size 32
l1i_set 64
l1i_way 8
l1i_rq_size 64
l1i_wq_size 64
l1i_pq_size 8
l1i_mshr_size 8
l1i_latency 1

l1d_size 32
l1d_set 64
l1d_way 8
l1d_rq_size 64
l1d_wq_size 64
l1d_pq_size 8
l1d_mshr_size 16
l1d_latency 4

l2c_size 256
l2c_set 512
l2c_way 8
l2c_rq_size 32
l2c_wq_size 32
l2c_pq_size 32
l2c_mshr_size 32
l2c_latency 10

llc_size 2048
llc_set 2048
llc_way 16
llc_rq_size 32
llc_wq_size 32
llc_pq_size 32
llc_mshr_size 64
llc_latency 20

dram_channel_width 8
dram_wq_size 64
dram_rq_size 64
tRP 15
tRCD 15
tCAS 12.5
dram_dbus_turn_around_time 30
dram_write_high_wm 56
dram_write_low_wm 48
min_dram_writes_per_switch 16
dram_mtps 150
dram_dbus_return_time 213


Heartbeat CPU  0 instructions:    1000000 cycles:     861985 heartbeat IPC: 1.16011 cumulative IPC: 1.16011 (Simulation time: 0 hr 0 min 1 sec) 
Heartbeat CPU  0 instructions:    2000000 cycles:    1864998 heartbeat IPC: 0.99700 cumulative IPC: 1.07239 (Simulation time: 0 hr 0 min 2 sec) 
Heartbeat CPU  0 instructions:    3000001 cycles:    2990805 heartbeat IPC: 0.88825 cumulative IPC: 1.00307 (Simulation time: 0 hr 0 min 4 sec) 
Heartbeat CPU  0 instructions:    4000000 cycles:    4091701 heartbeat IPC: 0.90835 cumulative IPC: 0.97759 (Simulation time: 0 hr 0 min 5 sec) 
Heartbeat CPU  0 instructions:    5000001 cycles:    5174027 heartbeat IPC: 0.92394 cumulative IPC: 0.96637 (Simulation time: 0 hr 0 min 7 sec) 
Heartbeat CPU  0 instructions:    6000000 cycles:    6296895 heartbeat IPC: 0.89058 cumulative IPC: 0.95285 (Simulation time: 0 hr 0 min 8 sec) 
Heartbeat CPU  0 instructions:    7000001 cycles:    7364166 heartbeat IPC: 0.93697 cumulative IPC: 0.95055 (Simulation time: 0 hr 0 min 9 sec) 
Heartbeat CPU  0 instructions:    8000000 cycles:    8566971 heartbeat IPC: 0.83139 cumulative IPC: 0.93382 (Simulation time: 0 hr 0 min 11 sec) 
Heartbeat CPU  0 instructions:    9000000 cycles:    9686425 heartbeat IPC: 0.89329 cumulative IPC: 0.92914 (Simulation time: 0 hr 0 min 12 sec) 
Heartbeat CPU  0 instructions:   10000003 cycles:   10816247 heartbeat IPC: 0.88510 cumulative IPC: 0.92454 (Simulation time: 0 hr 0 min 14 sec) 
Heartbeat CPU  0 instructions:   11000000 cycles:   11874015 heartbeat IPC: 0.94538 cumulative IPC: 0.92639 (Simulation time: 0 hr 0 min 15 sec) 
Heartbeat CPU  0 instructions:   12000000 cycles:   13018242 heartbeat IPC: 0.87395 cumulative IPC: 0.92178 (Simulation time: 0 hr 0 min 16 sec) 
Heartbeat CPU  0 instructions:   13000001 cycles:   14157728 heartbeat IPC: 0.87759 cumulative IPC: 0.91823 (Simulation time: 0 hr 0 min 18 sec) 
Heartbeat CPU  0 instructions:   14000000 cycles:   15084424 heartbeat IPC: 1.07910 cumulative IPC: 0.92811 (Simulation time: 0 hr 0 min 19 sec) 
Heartbeat CPU  0 instructions:   15000001 cycles:   16048488 heartbeat IPC: 1.03728 cumulative IPC: 0.93467 (Simulation time: 0 hr 0 min 20 sec) 
Heartbeat CPU  0 instructions:   16000000 cycles:   17177507 heartbeat IPC: 0.88572 cumulative IPC: 0.93145 (Simulation time: 0 hr 0 min 22 sec) 
Heartbeat CPU  0 instructions:   17000000 cycles:   18273067 heartbeat IPC: 0.91278 cumulative IPC: 0.93033 (Simulation time: 0 hr 0 min 23 sec) 
Heartbeat CPU  0 instructions:   18000003 cycles:   19389543 heartbeat IPC: 0.89568 cumulative IPC: 0.92834 (Simulation time: 0 hr 0 min 25 sec) 
Heartbeat CPU  0 instructions:   19000001 cycles:   20470731 heartbeat IPC: 0.92491 cumulative IPC: 0.92815 (Simulation time: 0 hr 0 min 26 sec) 
Heartbeat CPU  0 instructions:   20000000 cycles:   21562597 heartbeat IPC: 0.91586 cumulative IPC: 0.92753 (Simulation time: 0 hr 0 min 27 sec) 
Heartbeat CPU  0 instructions:   21000000 cycles:   22755071 heartbeat IPC: 0.83859 cumulative IPC: 0.92287 (Simulation time: 0 hr 0 min 29 sec) 
Heartbeat CPU  0 instructions:   22000003 cycles:   23882449 heartbeat IPC: 0.88702 cumulative IPC: 0.92118 (Simulation time: 0 hr 0 min 30 sec) 
Heartbeat CPU  0 instructions:   23000001 cycles:   24932580 heartbeat IPC: 0.95226 cumulative IPC: 0.92249 (Simulation time: 0 hr 0 min 31 sec) 
Heartbeat CPU  0 instructions:   24000000 cycles:   26049412 heartbeat IPC: 0.89539 cumulative IPC: 0.92133 (Simulation time: 0 hr 0 min 33 sec) 
Heartbeat CPU  0 instructions:   25000000 cycles:   26928654 heartbeat IPC: 1.13734 cumulative IPC: 0.92838 (Simulation time: 0 hr 0 min 34 sec) 
Heartbeat CPU  0 instructions:   26000000 cycles:   27898895 heartbeat IPC: 1.03067 cumulative IPC: 0.93194 (Simulation time: 0 hr 0 min 35 sec) 
Heartbeat CPU  0 instructions:   27000002 cycles:   29001582 heartbeat IPC: 0.90688 cumulative IPC: 0.93098 (Simulation time: 0 hr 0 min 37 sec) 
Heartbeat CPU  0 instructions:   28000000 cycles:   30122314 heartbeat IPC: 0.89227 cumulative IPC: 0.92954 (Simulation time: 0 hr 0 min 38 sec) 
Heartbeat CPU  0 instructions:   29000003 cycles:   31188369 heartbeat IPC: 0.93804 cumulative IPC: 0.92983 (Simulation time: 0 hr 0 min 40 sec) 
Heartbeat CPU  0 instructions:   30000002 cycles:   32280922 heartbeat IPC: 0.91529 cumulative IPC: 0.92934 (Simulation time: 0 hr 0 min 41 sec) 
Heartbeat CPU  0 instructions:   31000003 cycles:   33383337 heartbeat IPC: 0.90710 cumulative IPC: 0.92861 (Simulation time: 0 hr 0 min 42 sec) 
Heartbeat CPU  0 instructions:   32000000 cycles:   34483045 heartbeat IPC: 0.90933 cumulative IPC: 0.92799 (Simulation time: 0 hr 0 min 44 sec) 
Heartbeat CPU  0 instructions:   33000001 cycles:   35470331 heartbeat IPC: 1.01288 cumulative IPC: 0.93036 (Simulation time: 0 hr 0 min 45 sec) 
Heartbeat CPU  0 instructions:   34000001 cycles:   36608263 heartbeat IPC: 0.87879 cumulative IPC: 0.92875 (Simulation time: 0 hr 0 min 47 sec) 
Heartbeat CPU  0 instructions:   35000003 cycles:   37680614 heartbeat IPC: 0.93253 cumulative IPC: 0.92886 (Simulation time: 0 hr 0 min 48 sec) 
Heartbeat CPU  0 instructions:   36000000 cycles:   38872235 heartbeat IPC: 0.83919 cumulative IPC: 0.92611 (Simulation time: 0 hr 0 min 49 sec) 
Heartbeat CPU  0 instructions:   37000002 cycles:   39988264 heartbeat IPC: 0.89604 cumulative IPC: 0.92527 (Simulation time: 0 hr 0 min 51 sec) 
Heartbeat CPU  0 instructions:   38000000 cycles:   41038264 heartbeat IPC: 0.95238 cumulative IPC: 0.92597 (Simulation time: 0 hr 0 min 52 sec) 
Heartbeat CPU  0 instructions:   39000001 cycles:   41931809 heartbeat IPC: 1.11914 cumulative IPC: 0.93008 (Simulation time: 0 hr 0 min 53 sec) 
Heartbeat CPU  0 instructions:   40000000 cycles:   42889690 heartbeat IPC: 1.04397 cumulative IPC: 0.93263 (Simulation time: 0 hr 0 min 55 sec) 
Heartbeat CPU  0 instructions:   41000000 cycles:   43991062 heartbeat IPC: 0.90796 cumulative IPC: 0.93201 (Simulation time: 0 hr 0 min 56 sec) 
Heartbeat CPU  0 instructions:   42000000 cycles:   45116155 heartbeat IPC: 0.88882 cumulative IPC: 0.93093 (Simulation time: 0 hr 0 min 58 sec) 
Heartbeat CPU  0 instructions:   43000003 cycles:   46183786 heartbeat IPC: 0.93666 cumulative IPC: 0.93106 (Simulation time: 0 hr 0 min 59 sec) 
Heartbeat CPU  0 instructions:   44000000 cycles:   47303737 heartbeat IPC: 0.89289 cumulative IPC: 0.93016 (Simulation time: 0 hr 1 min 0 sec) 
Heartbeat CPU  0 instructions:   45000001 cycles:   48337483 heartbeat IPC: 0.96736 cumulative IPC: 0.93095 (Simulation time: 0 hr 1 min 2 sec) 
Heartbeat CPU  0 instructions:   46000000 cycles:   49423935 heartbeat IPC: 0.92043 cumulative IPC: 0.93072 (Simulation time: 0 hr 1 min 3 sec) 
Heartbeat CPU  0 instructions:   47000003 cycles:   50532252 heartbeat IPC: 0.90227 cumulative IPC: 0.93010 (Simulation time: 0 hr 1 min 5 sec) 
Heartbeat CPU  0 instructions:   48000000 cycles:   51501490 heartbeat IPC: 1.03174 cumulative IPC: 0.93201 (Simulation time: 0 hr 1 min 6 sec) 
Heartbeat CPU  0 instructions:   49000000 cycles:   52616056 heartbeat IPC: 0.89721 cumulative IPC: 0.93127 (Simulation time: 0 hr 1 min 7 sec) 
Heartbeat CPU  0 instructions:   50000000 cycles:   53700125 heartbeat IPC: 0.92245 cumulative IPC: 0.93110 (Simulation time: 0 hr 1 min 9 sec) 
Heartbeat CPU  0 instructions:   51000001 cycles:   54767502 heartbeat IPC: 0.93688 cumulative IPC: 0.93121 (Simulation time: 0 hr 1 min 10 sec) 
Heartbeat CPU  0 instructions:   52000000 cycles:   55897224 heartbeat IPC: 0.88517 cumulative IPC: 0.93028 (Simulation time: 0 hr 1 min 12 sec) 
Heartbeat CPU  0 instructions:   53000000 cycles:   57003812 heartbeat IPC: 0.90368 cumulative IPC: 0.92976 (Simulation time: 0 hr 1 min 13 sec) 
Heartbeat CPU  0 instructions:   54000001 cycles:   58200480 heartbeat IPC: 0.83565 cumulative IPC: 0.92783 (Simulation time: 0 hr 1 min 14 sec) 
Heartbeat CPU  0 instructions:   55000002 cycles:   59320192 heartbeat IPC: 0.89309 cumulative IPC: 0.92717 (Simulation time: 0 hr 1 min 16 sec) 
Heartbeat CPU  0 instructions:   56000000 cycles:   60386056 heartbeat IPC: 0.93820 cumulative IPC: 0.92737 (Simulation time: 0 hr 1 min 17 sec) 
Heartbeat CPU  0 instructions:   57000000 cycles:   61474124 heartbeat IPC: 0.91906 cumulative IPC: 0.92722 (Simulation time: 0 hr 1 min 19 sec) 
Heartbeat CPU  0 instructions:   58000001 cycles:   62563421 heartbeat IPC: 0.91802 cumulative IPC: 0.92706 (Simulation time: 0 hr 1 min 20 sec) 
Heartbeat CPU  0 instructions:   59000000 cycles:   63438160 heartbeat IPC: 1.14320 cumulative IPC: 0.93004 (Simulation time: 0 hr 1 min 21 sec) 
Heartbeat CPU  0 instructions:   60000000 cycles:   64557188 heartbeat IPC: 0.89363 cumulative IPC: 0.92941 (Simulation time: 0 hr 1 min 22 sec) 
Heartbeat CPU  0 instructions:   61000000 cycles:   65653480 heartbeat IPC: 0.91217 cumulative IPC: 0.92912 (Simulation time: 0 hr 1 min 24 sec) 
Heartbeat CPU  0 instructions:   62000000 cycles:   66731791 heartbeat IPC: 0.92738 cumulative IPC: 0.92909 (Simulation time: 0 hr 1 min 25 sec) 
Heartbeat CPU  0 instructions:   63000001 cycles:   67749194 heartbeat IPC: 0.98290 cumulative IPC: 0.92990 (Simulation time: 0 hr 1 min 27 sec) 
Heartbeat CPU  0 instructions:   64000000 cycles:   68871709 heartbeat IPC: 0.89086 cumulative IPC: 0.92926 (Simulation time: 0 hr 1 min 28 sec) 
Heartbeat CPU  0 instructions:   65000000 cycles:   69947117 heartbeat IPC: 0.92988 cumulative IPC: 0.92927 (Simulation time: 0 hr 1 min 30 sec) 
Heartbeat CPU  0 instructions:   66000000 cycles:   71003999 heartbeat IPC: 0.94618 cumulative IPC: 0.92953 (Simulation time: 0 hr 1 min 31 sec) 
Heartbeat CPU  0 instructions:   67000000 cycles:   72117566 heartbeat IPC: 0.89802 cumulative IPC: 0.92904 (Simulation time: 0 hr 1 min 32 sec) 
Heartbeat CPU  0 instructions:   68000000 cycles:   73206019 heartbeat IPC: 0.91874 cumulative IPC: 0.92889 (Simulation time: 0 hr 1 min 34 sec) 
Heartbeat CPU  0 instructions:   69000001 cycles:   74314681 heartbeat IPC: 0.90199 cumulative IPC: 0.92848 (Simulation time: 0 hr 1 min 35 sec) 
Heartbeat CPU  0 instructions:   70000000 cycles:   75287621 heartbeat IPC: 1.02781 cumulative IPC: 0.92977 (Simulation time: 0 hr 1 min 37 sec) 
Heartbeat CPU  0 instructions:   71000000 cycles:   76202676 heartbeat IPC: 1.09283 cumulative IPC: 0.93173 (Simulation time: 0 hr 1 min 38 sec) 
Heartbeat CPU  0 instructions:   72000000 cycles:   77302224 heartbeat IPC: 0.90946 cumulative IPC: 0.93141 (Simulation time: 0 hr 1 min 39 sec) 
Heartbeat CPU  0 instructions:   73000001 cycles:   78364359 heartbeat IPC: 0.94150 cumulative IPC: 0.93155 (Simulation time: 0 hr 1 min 41 sec) 
Heartbeat CPU  0 instructions:   74000000 cycles:   79431226 heartbeat IPC: 0.93732 cumulative IPC: 0.93162 (Simulation time: 0 hr 1 min 42 sec) 
Heartbeat CPU  0 instructions:   75000001 cycles:   80373772 heartbeat IPC: 1.06096 cumulative IPC: 0.93314 (Simulation time: 0 hr 1 min 44 sec) 
Heartbeat CPU  0 instructions:   76000000 cycles:   81361815 heartbeat IPC: 1.01210 cumulative IPC: 0.93410 (Simulation time: 0 hr 1 min 45 sec) 
Heartbeat CPU  0 instructions:   77000002 cycles:   82403460 heartbeat IPC: 0.96002 cumulative IPC: 0.93443 (Simulation time: 0 hr 1 min 46 sec) 
Heartbeat CPU  0 instructions:   78000000 cycles:   83354780 heartbeat IPC: 1.05117 cumulative IPC: 0.93576 (Simulation time: 0 hr 1 min 48 sec) 
Heartbeat CPU  0 instructions:   79000003 cycles:   84385471 heartbeat IPC: 0.97023 cumulative IPC: 0.93618 (Simulation time: 0 hr 1 min 49 sec) 
Heartbeat CPU  0 instructions:   80000000 cycles:   85451917 heartbeat IPC: 0.93769 cumulative IPC: 0.93620 (Simulation time: 0 hr 1 min 51 sec) 
Heartbeat CPU  0 instructions:   81000003 cycles:   86540407 heartbeat IPC: 0.91871 cumulative IPC: 0.93598 (Simulation time: 0 hr 1 min 52 sec) 
Heartbeat CPU  0 instructions:   82000000 cycles:   87615393 heartbeat IPC: 0.93024 cumulative IPC: 0.93591 (Simulation time: 0 hr 1 min 54 sec) 
Heartbeat CPU  0 instructions:   83000001 cycles:   88714619 heartbeat IPC: 0.90973 cumulative IPC: 0.93558 (Simulation time: 0 hr 1 min 55 sec) 
Heartbeat CPU  0 instructions:   84000000 cycles:   89753625 heartbeat IPC: 0.96246 cumulative IPC: 0.93590 (Simulation time: 0 hr 1 min 56 sec) 
Heartbeat CPU  0 instructions:   85000000 cycles:   90753305 heartbeat IPC: 1.00032 cumulative IPC: 0.93661 (Simulation time: 0 hr 1 min 58 sec) 
Heartbeat CPU  0 instructions:   86000000 cycles:   91839468 heartbeat IPC: 0.92067 cumulative IPC: 0.93642 (Simulation time: 0 hr 1 min 59 sec) 
Heartbeat CPU  0 instructions:   87000002 cycles:   92926293 heartbeat IPC: 0.92011 cumulative IPC: 0.93623 (Simulation time: 0 hr 2 min 1 sec) 
Heartbeat CPU  0 instructions:   88000000 cycles:   93996482 heartbeat IPC: 0.93441 cumulative IPC: 0.93621 (Simulation time: 0 hr 2 min 2 sec) 
Heartbeat CPU  0 instructions:   89000002 cycles:   95095848 heartbeat IPC: 0.90962 cumulative IPC: 0.93590 (Simulation time: 0 hr 2 min 3 sec) 
Heartbeat CPU  0 instructions:   90000002 cycles:   96183251 heartbeat IPC: 0.91962 cumulative IPC: 0.93571 (Simulation time: 0 hr 2 min 5 sec) 
Heartbeat CPU  0 instructions:   91000001 cycles:   97249754 heartbeat IPC: 0.93764 cumulative IPC: 0.93574 (Simulation time: 0 hr 2 min 6 sec) 
Heartbeat CPU  0 instructions:   92000000 cycles:   98368550 heartbeat IPC: 0.89382 cumulative IPC: 0.93526 (Simulation time: 0 hr 2 min 7 sec) 
Heartbeat CPU  0 instructions:   93000000 cycles:   99407910 heartbeat IPC: 0.96213 cumulative IPC: 0.93554 (Simulation time: 0 hr 2 min 9 sec) 
Heartbeat CPU  0 instructions:   94000001 cycles:  100526176 heartbeat IPC: 0.89424 cumulative IPC: 0.93508 (Simulation time: 0 hr 2 min 10 sec) 
Heartbeat CPU  0 instructions:   95000001 cycles:  101618218 heartbeat IPC: 0.91572 cumulative IPC: 0.93487 (Simulation time: 0 hr 2 min 12 sec) 
Heartbeat CPU  0 instructions:   96000000 cycles:  102708007 heartbeat IPC: 0.91761 cumulative IPC: 0.93469 (Simulation time: 0 hr 2 min 13 sec) 
Heartbeat CPU  0 instructions:   97000001 cycles:  103836286 heartbeat IPC: 0.88631 cumulative IPC: 0.93416 (Simulation time: 0 hr 2 min 14 sec) 
Heartbeat CPU  0 instructions:   98000000 cycles:  104935037 heartbeat IPC: 0.91012 cumulative IPC: 0.93391 (Simulation time: 0 hr 2 min 16 sec) 
Heartbeat CPU  0 instructions:   99000003 cycles:  106006636 heartbeat IPC: 0.93319 cumulative IPC: 0.93390 (Simulation time: 0 hr 2 min 17 sec) 
Heartbeat CPU  0 instructions:  100000000 cycles:  107092208 heartbeat IPC: 0.92117 cumulative IPC: 0.93377 (Simulation time: 0 hr 2 min 19 sec) 

Warmup complete CPU  0 instructions:  100000001 cycles:  107092210 (Simulation time: 0 hr 2 min 19 sec) 

Heartbeat CPU  0 instructions:  101000000 cycles:  109771170 heartbeat IPC: 0.37328 cumulative IPC: 0.37328 (Simulation time: 0 hr 2 min 21 sec) 
Heartbeat CPU  0 instructions:  102000000 cycles:  112429411 heartbeat IPC: 0.37619 cumulative IPC: 0.37473 (Simulation time: 0 hr 2 min 23 sec) 
Heartbeat CPU  0 instructions:  103000000 cycles:  115090315 heartbeat IPC: 0.37581 cumulative IPC: 0.37509 (Simulation time: 0 hr 2 min 25 sec) 
Heartbeat CPU  0 instructions:  104000000 cycles:  117660290 heartbeat IPC: 0.38911 cumulative IPC: 0.37850 (Simulation time: 0 hr 2 min 28 sec) 
Heartbeat CPU  0 instructions:  105000003 cycles:  120405675 heartbeat IPC: 0.36425 cumulative IPC: 0.37556 (Simulation time: 0 hr 2 min 30 sec) 
Heartbeat CPU  0 instructions:  106000001 cycles:  123109618 heartbeat IPC: 0.36983 cumulative IPC: 0.37459 (Simulation time: 0 hr 2 min 32 sec) 
Heartbeat CPU  0 instructions:  107000003 cycles:  125815504 heartbeat IPC: 0.36957 cumulative IPC: 0.37387 (Simulation time: 0 hr 2 min 34 sec) 
Heartbeat CPU  0 instructions:  108000000 cycles:  128647191 heartbeat IPC: 0.35315 cumulative IPC: 0.37114 (Simulation time: 0 hr 2 min 37 sec) 
Heartbeat CPU  0 instructions:  109000000 cycles:  131446978 heartbeat IPC: 0.35717 cumulative IPC: 0.36954 (Simulation time: 0 hr 2 min 39 sec) 
Heartbeat CPU  0 instructions:  110000002 cycles:  134129268 heartbeat IPC: 0.37282 cumulative IPC: 0.36986 (Simulation time: 0 hr 2 min 41 sec) 
Heartbeat CPU  0 instructions:  111000002 cycles:  136712154 heartbeat IPC: 0.38716 cumulative IPC: 0.37137 (Simulation time: 0 hr 2 min 43 sec) 
Heartbeat CPU  0 instructions:  112000000 cycles:  139472903 heartbeat IPC: 0.36222 cumulative IPC: 0.37059 (Simulation time: 0 hr 2 min 46 sec) 
Heartbeat CPU  0 instructions:  113000001 cycles:  142338447 heartbeat IPC: 0.34897 cumulative IPC: 0.36883 (Simulation time: 0 hr 2 min 48 sec) 
Heartbeat CPU  0 instructions:  114000000 cycles:  145173195 heartbeat IPC: 0.35276 cumulative IPC: 0.36764 (Simulation time: 0 hr 2 min 50 sec) 
Heartbeat CPU  0 instructions:  115000000 cycles:  147897046 heartbeat IPC: 0.36713 cumulative IPC: 0.36760 (Simulation time: 0 hr 2 min 52 sec) 
Heartbeat CPU  0 instructions:  116000000 cycles:  150676725 heartbeat IPC: 0.35975 cumulative IPC: 0.36710 (Simulation time: 0 hr 2 min 55 sec) 
Heartbeat CPU  0 instructions:  117000002 cycles:  153417325 heartbeat IPC: 0.36488 cumulative IPC: 0.36697 (Simulation time: 0 hr 2 min 57 sec) 
Heartbeat CPU  0 instructions:  118000000 cycles:  156175669 heartbeat IPC: 0.36254 cumulative IPC: 0.36672 (Simulation time: 0 hr 2 min 59 sec) 
Heartbeat CPU  0 instructions:  119000000 cycles:  158944928 heartbeat IPC: 0.36111 cumulative IPC: 0.36642 (Simulation time: 0 hr 3 min 1 sec) 
Heartbeat CPU  0 instructions:  120000000 cycles:  161788347 heartbeat IPC: 0.35169 cumulative IPC: 0.36566 (Simulation time: 0 hr 3 min 4 sec) 
Heartbeat CPU  0 instructions:  121000000 cycles:  164506730 heartbeat IPC: 0.36787 cumulative IPC: 0.36576 (Simulation time: 0 hr 3 min 6 sec) 
Heartbeat CPU  0 instructions:  122000001 cycles:  167257464 heartbeat IPC: 0.36354 cumulative IPC: 0.36566 (Simulation time: 0 hr 3 min 8 sec) 
Heartbeat CPU  0 instructions:  123000001 cycles:  169954038 heartbeat IPC: 0.37084 cumulative IPC: 0.36588 (Simulation time: 0 hr 3 min 10 sec) 
Heartbeat CPU  0 instructions:  124000000 cycles:  172597661 heartbeat IPC: 0.37827 cumulative IPC: 0.36638 (Simulation time: 0 hr 3 min 13 sec) 
Heartbeat CPU  0 instructions:  125000003 cycles:  175233056 heartbeat IPC: 0.37945 cumulative IPC: 0.36689 (Simulation time: 0 hr 3 min 15 sec) 
Heartbeat CPU  0 instructions:  126000000 cycles:  177892471 heartbeat IPC: 0.37602 cumulative IPC: 0.36723 (Simulation time: 0 hr 3 min 17 sec) 
Heartbeat CPU  0 instructions:  127000001 cycles:  180762559 heartbeat IPC: 0.34842 cumulative IPC: 0.36650 (Simulation time: 0 hr 3 min 19 sec) 
Heartbeat CPU  0 instructions:  128000000 cycles:  183474578 heartbeat IPC: 0.36873 cumulative IPC: 0.36658 (Simulation time: 0 hr 3 min 22 sec) 
Heartbeat CPU  0 instructions:  129000001 cycles:  186333172 heartbeat IPC: 0.34982 cumulative IPC: 0.36597 (Simulation time: 0 hr 3 min 24 sec) 
Heartbeat CPU  0 instructions:  130000000 cycles:  189192443 heartbeat IPC: 0.34974 cumulative IPC: 0.36541 (Simulation time: 0 hr 3 min 26 sec) 
Heartbeat CPU  0 instructions:  131000000 cycles:  191944734 heartbeat IPC: 0.36333 cumulative IPC: 0.36534 (Simulation time: 0 hr 3 min 28 sec) 
Heartbeat CPU  0 instructions:  132000000 cycles:  194707676 heartbeat IPC: 0.36193 cumulative IPC: 0.36523 (Simulation time: 0 hr 3 min 31 sec) 
Heartbeat CPU  0 instructions:  133000001 cycles:  197434749 heartbeat IPC: 0.36669 cumulative IPC: 0.36528 (Simulation time: 0 hr 3 min 33 sec) 
Heartbeat CPU  0 instructions:  134000000 cycles:  200198760 heartbeat IPC: 0.36179 cumulative IPC: 0.36517 (Simulation time: 0 hr 3 min 35 sec) 
Heartbeat CPU  0 instructions:  135000000 cycles:  202994019 heartbeat IPC: 0.35775 cumulative IPC: 0.36496 (Simulation time: 0 hr 3 min 37 sec) 
Heartbeat CPU  0 instructions:  136000000 cycles:  205777236 heartbeat IPC: 0.35930 cumulative IPC: 0.36480 (Simulation time: 0 hr 3 min 40 sec) 
Heartbeat CPU  0 instructions:  137000000 cycles:  208515612 heartbeat IPC: 0.36518 cumulative IPC: 0.36481 (Simulation time: 0 hr 3 min 42 sec) 
Heartbeat CPU  0 instructions:  138000000 cycles:  211113698 heartbeat IPC: 0.38490 cumulative IPC: 0.36531 (Simulation time: 0 hr 3 min 44 sec) 
Heartbeat CPU  0 instructions:  139000002 cycles:  213808801 heartbeat IPC: 0.37104 cumulative IPC: 0.36545 (Simulation time: 0 hr 3 min 46 sec) 
Heartbeat CPU  0 instructions:  140000000 cycles:  216555059 heartbeat IPC: 0.36413 cumulative IPC: 0.36542 (Simulation time: 0 hr 3 min 49 sec) 
Heartbeat CPU  0 instructions:  141000003 cycles:  219293394 heartbeat IPC: 0.36519 cumulative IPC: 0.36542 (Simulation time: 0 hr 3 min 51 sec) 
Heartbeat CPU  0 instructions:  142000000 cycles:  221967972 heartbeat IPC: 0.37389 cumulative IPC: 0.36561 (Simulation time: 0 hr 3 min 53 sec) 
Heartbeat CPU  0 instructions:  143000001 cycles:  224622536 heartbeat IPC: 0.37671 cumulative IPC: 0.36586 (Simulation time: 0 hr 3 min 55 sec) 
Heartbeat CPU  0 instructions:  144000000 cycles:  227064285 heartbeat IPC: 0.40954 cumulative IPC: 0.36675 (Simulation time: 0 hr 3 min 58 sec) 
Heartbeat CPU  0 instructions:  145000001 cycles:  229190845 heartbeat IPC: 0.47024 cumulative IPC: 0.36855 (Simulation time: 0 hr 4 min 2 sec) 
Heartbeat CPU  0 instructions:  146000001 cycles:  236704688 heartbeat IPC: 0.13309 cumulative IPC: 0.35490 (Simulation time: 0 hr 4 min 8 sec) 
Heartbeat CPU  0 instructions:  147000001 cycles:  244521551 heartbeat IPC: 0.12793 cumulative IPC: 0.34199 (Simulation time: 0 hr 4 min 16 sec) 
Heartbeat CPU  0 instructions:  148000000 cycles:  253192637 heartbeat IPC: 0.11533 cumulative IPC: 0.32854 (Simulation time: 0 hr 4 min 23 sec) 
Heartbeat CPU  0 instructions:  149000001 cycles:  268208601 heartbeat IPC: 0.06660 cumulative IPC: 0.30413 (Simulation time: 0 hr 4 min 35 sec) 
Heartbeat CPU  0 instructions:  150000001 cycles:  285359125 heartbeat IPC: 0.05831 cumulative IPC: 0.28048 (Simulation time: 0 hr 4 min 48 sec) 
Heartbeat CPU  0 instructions:  151000001 cycles:  303351119 heartbeat IPC: 0.05558 cumulative IPC: 0.25986 (Simulation time: 0 hr 5 min 2 sec) 
Heartbeat CPU  0 instructions:  152000000 cycles:  324422630 heartbeat IPC: 0.04746 cumulative IPC: 0.23927 (Simulation time: 0 hr 5 min 17 sec) 
Heartbeat CPU  0 instructions:  153000001 cycles:  350725810 heartbeat IPC: 0.03802 cumulative IPC: 0.21754 (Simulation time: 0 hr 5 min 36 sec) 
Heartbeat CPU  0 instructions:  154000003 cycles:  377734774 heartbeat IPC: 0.03702 cumulative IPC: 0.19953 (Simulation time: 0 hr 5 min 55 sec) 
Heartbeat CPU  0 instructions:  155000002 cycles:  389098554 heartbeat IPC: 0.08800 cumulative IPC: 0.19503 (Simulation time: 0 hr 6 min 4 sec) 
Heartbeat CPU  0 instructions:  156000000 cycles:  398075218 heartbeat IPC: 0.11140 cumulative IPC: 0.19245 (Simulation time: 0 hr 6 min 11 sec) 
Heartbeat CPU  0 instructions:  157000002 cycles:  407086601 heartbeat IPC: 0.11097 cumulative IPC: 0.19000 (Simulation time: 0 hr 6 min 19 sec) 
Heartbeat CPU  0 instructions:  158000002 cycles:  416617794 heartbeat IPC: 0.10492 cumulative IPC: 0.18738 (Simulation time: 0 hr 6 min 27 sec) 
Heartbeat CPU  0 instructions:  159000002 cycles:  434656666 heartbeat IPC: 0.05544 cumulative IPC: 0.18012 (Simulation time: 0 hr 6 min 41 sec) 
Heartbeat CPU  0 instructions:  160000000 cycles:  452590676 heartbeat IPC: 0.05576 cumulative IPC: 0.17366 (Simulation time: 0 hr 6 min 54 sec) 
Heartbeat CPU  0 instructions:  161000002 cycles:  470445003 heartbeat IPC: 0.05601 cumulative IPC: 0.16788 (Simulation time: 0 hr 7 min 8 sec) 
Heartbeat CPU  0 instructions:  162000000 cycles:  494908163 heartbeat IPC: 0.04088 cumulative IPC: 0.15987 (Simulation time: 0 hr 7 min 25 sec) 
Heartbeat CPU  0 instructions:  163000002 cycles:  521776151 heartbeat IPC: 0.03722 cumulative IPC: 0.15192 (Simulation time: 0 hr 7 min 44 sec) 
Heartbeat CPU  0 instructions:  164000000 cycles:  542508541 heartbeat IPC: 0.04823 cumulative IPC: 0.14699 (Simulation time: 0 hr 7 min 59 sec) 
Heartbeat CPU  0 instructions:  165000003 cycles:  546677164 heartbeat IPC: 0.23989 cumulative IPC: 0.14787 (Simulation time: 0 hr 8 min 2 sec) 
Heartbeat CPU  0 instructions:  166000000 cycles:  549525019 heartbeat IPC: 0.35114 cumulative IPC: 0.14918 (Simulation time: 0 hr 8 min 5 sec) 
Heartbeat CPU  0 instructions:  167000002 cycles:  552323457 heartbeat IPC: 0.35734 cumulative IPC: 0.15048 (Simulation time: 0 hr 8 min 7 sec) 
Heartbeat CPU  0 instructions:  168000000 cycles:  555113577 heartbeat IPC: 0.35841 cumulative IPC: 0.15178 (Simulation time: 0 hr 8 min 9 sec) 
Heartbeat CPU  0 instructions:  169000000 cycles:  557928377 heartbeat IPC: 0.35527 cumulative IPC: 0.15305 (Simulation time: 0 hr 8 min 12 sec) 
Heartbeat CPU  0 instructions:  170000003 cycles:  560720868 heartbeat IPC: 0.35810 cumulative IPC: 0.15431 (Simulation time: 0 hr 8 min 14 sec) 
Heartbeat CPU  0 instructions:  171000000 cycles:  563433753 heartbeat IPC: 0.36861 cumulative IPC: 0.15559 (Simulation time: 0 hr 8 min 16 sec) 
Heartbeat CPU  0 instructions:  172000000 cycles:  566214655 heartbeat IPC: 0.35960 cumulative IPC: 0.15682 (Simulation time: 0 hr 8 min 19 sec) 
Heartbeat CPU  0 instructions:  173000000 cycles:  568914481 heartbeat IPC: 0.37039 cumulative IPC: 0.15807 (Simulation time: 0 hr 8 min 21 sec) 
Heartbeat CPU  0 instructions:  174000000 cycles:  571706771 heartbeat IPC: 0.35813 cumulative IPC: 0.15927 (Simulation time: 0 hr 8 min 23 sec) 
Heartbeat CPU  0 instructions:  175000001 cycles:  574490999 heartbeat IPC: 0.35917 cumulative IPC: 0.16046 (Simulation time: 0 hr 8 min 25 sec) 
Heartbeat CPU  0 instructions:  176000000 cycles:  577280735 heartbeat IPC: 0.35846 cumulative IPC: 0.16164 (Simulation time: 0 hr 8 min 28 sec) 
Heartbeat CPU  0 instructions:  177000000 cycles:  580072100 heartbeat IPC: 0.35825 cumulative IPC: 0.16280 (Simulation time: 0 hr 8 min 30 sec) 
Heartbeat CPU  0 instructions:  178000001 cycles:  582800805 heartbeat IPC: 0.36647 cumulative IPC: 0.16397 (Simulation time: 0 hr 8 min 32 sec) 
Heartbeat CPU  0 instructions:  179000003 cycles:  585423113 heartbeat IPC: 0.38134 cumulative IPC: 0.16516 (Simulation time: 0 hr 8 min 34 sec) 
Heartbeat CPU  0 instructions:  180000000 cycles:  588177611 heartbeat IPC: 0.36304 cumulative IPC: 0.16629 (Simulation time: 0 hr 8 min 37 sec) 
Heartbeat CPU  0 instructions:  181000000 cycles:  590671948 heartbeat IPC: 0.40091 cumulative IPC: 0.16750 (Simulation time: 0 hr 8 min 39 sec) 
Heartbeat CPU  0 instructions:  182000000 cycles:  593361377 heartbeat IPC: 0.37183 cumulative IPC: 0.16863 (Simulation time: 0 hr 8 min 41 sec) 
Heartbeat CPU  0 instructions:  183000000 cycles:  595960815 heartbeat IPC: 0.38470 cumulative IPC: 0.16978 (Simulation time: 0 hr 8 min 43 sec) 
Heartbeat CPU  0 instructions:  184000000 cycles:  598445933 heartbeat IPC: 0.40240 cumulative IPC: 0.17096 (Simulation time: 0 hr 8 min 45 sec) 
Heartbeat CPU  0 instructions:  185000000 cycles:  601071184 heartbeat IPC: 0.38092 cumulative IPC: 0.17207 (Simulation time: 0 hr 8 min 48 sec) 
Heartbeat CPU  0 instructions:  186000000 cycles:  603783730 heartbeat IPC: 0.36866 cumulative IPC: 0.17315 (Simulation time: 0 hr 8 min 50 sec) 
Heartbeat CPU  0 instructions:  187000000 cycles:  606371785 heartbeat IPC: 0.38639 cumulative IPC: 0.17425 (Simulation time: 0 hr 8 min 52 sec) 
Heartbeat CPU  0 instructions:  188000000 cycles:  608792541 heartbeat IPC: 0.41309 cumulative IPC: 0.17540 (Simulation time: 0 hr 8 min 54 sec) 
Heartbeat CPU  0 instructions:  189000000 cycles:  611438904 heartbeat IPC: 0.37788 cumulative IPC: 0.17647 (Simulation time: 0 hr 8 min 56 sec) 
Heartbeat CPU  0 instructions:  190000000 cycles:  614004338 heartbeat IPC: 0.38980 cumulative IPC: 0.17755 (Simulation time: 0 hr 8 min 59 sec) 
Heartbeat CPU  0 instructions:  191000001 cycles:  616631848 heartbeat IPC: 0.38059 cumulative IPC: 0.17859 (Simulation time: 0 hr 9 min 1 sec) 
Heartbeat CPU  0 instructions:  192000000 cycles:  619230466 heartbeat IPC: 0.38482 cumulative IPC: 0.17964 (Simulation time: 0 hr 9 min 3 sec) 
Heartbeat CPU  0 instructions:  193000001 cycles:  621781209 heartbeat IPC: 0.39204 cumulative IPC: 0.18069 (Simulation time: 0 hr 9 min 5 sec) 
Heartbeat CPU  0 instructions:  194000000 cycles:  623835458 heartbeat IPC: 0.48680 cumulative IPC: 0.18191 (Simulation time: 0 hr 9 min 7 sec) 
Heartbeat CPU  0 instructions:  195000000 cycles:  626467704 heartbeat IPC: 0.37990 cumulative IPC: 0.18291 (Simulation time: 0 hr 9 min 9 sec) 
Heartbeat CPU  0 instructions:  196000000 cycles:  629090119 heartbeat IPC: 0.38133 cumulative IPC: 0.18391 (Simulation time: 0 hr 9 min 12 sec) 
Heartbeat CPU  0 instructions:  197000002 cycles:  631660518 heartbeat IPC: 0.38905 cumulative IPC: 0.18491 (Simulation time: 0 hr 9 min 14 sec) 
Heartbeat CPU  0 instructions:  198000000 cycles:  634192957 heartbeat IPC: 0.39488 cumulative IPC: 0.18592 (Simulation time: 0 hr 9 min 16 sec) 
Heartbeat CPU  0 instructions:  199000000 cycles:  636716962 heartbeat IPC: 0.39620 cumulative IPC: 0.18692 (Simulation time: 0 hr 9 min 18 sec) 
Heartbeat CPU  0 instructions:  200000000 cycles:  639295584 heartbeat IPC: 0.38780 cumulative IPC: 0.18790 (Simulation time: 0 hr 9 min 21 sec) 
Heartbeat CPU  0 instructions:  201000002 cycles:  641973823 heartbeat IPC: 0.37338 cumulative IPC: 0.18883 (Simulation time: 0 hr 9 min 23 sec) 
Heartbeat CPU  0 instructions:  202000001 cycles:  644689613 heartbeat IPC: 0.36822 cumulative IPC: 0.18973 (Simulation time: 0 hr 9 min 25 sec) 
Heartbeat CPU  0 instructions:  203000000 cycles:  647277983 heartbeat IPC: 0.38634 cumulative IPC: 0.19068 (Simulation time: 0 hr 9 min 27 sec) 
Heartbeat CPU  0 instructions:  204000000 cycles:  649817919 heartbeat IPC: 0.39371 cumulative IPC: 0.19163 (Simulation time: 0 hr 9 min 29 sec) 
Heartbeat CPU  0 instructions:  205000002 cycles:  652451533 heartbeat IPC: 0.37971 cumulative IPC: 0.19253 (Simulation time: 0 hr 9 min 32 sec) 
Heartbeat CPU  0 instructions:  206000001 cycles:  654989610 heartbeat IPC: 0.39400 cumulative IPC: 0.19347 (Simulation time: 0 hr 9 min 34 sec) 
Heartbeat CPU  0 instructions:  207000000 cycles:  657574479 heartbeat IPC: 0.38687 cumulative IPC: 0.19438 (Simulation time: 0 hr 9 min 36 sec) 
Heartbeat CPU  0 instructions:  208000000 cycles:  660402992 heartbeat IPC: 0.35354 cumulative IPC: 0.19519 (Simulation time: 0 hr 9 min 38 sec) 
Heartbeat CPU  0 instructions:  209000003 cycles:  663243763 heartbeat IPC: 0.35202 cumulative IPC: 0.19599 (Simulation time: 0 hr 9 min 40 sec) 
Heartbeat CPU  0 instructions:  210000000 cycles:  665873989 heartbeat IPC: 0.38019 cumulative IPC: 0.19686 (Simulation time: 0 hr 9 min 43 sec) 
Heartbeat CPU  0 instructions:  211000000 cycles:  668747599 heartbeat IPC: 0.34799 cumulative IPC: 0.19763 (Simulation time: 0 hr 9 min 45 sec) 
Heartbeat CPU  0 instructions:  212000000 cycles:  671454876 heartbeat IPC: 0.36937 cumulative IPC: 0.19845 (Simulation time: 0 hr 9 min 47 sec) 
Heartbeat CPU  0 instructions:  213000002 cycles:  674207552 heartbeat IPC: 0.36328 cumulative IPC: 0.19925 (Simulation time: 0 hr 9 min 50 sec) 
Heartbeat CPU  0 instructions:  214000000 cycles:  677025721 heartbeat IPC: 0.35484 cumulative IPC: 0.20002 (Simulation time: 0 hr 9 min 52 sec) 
Heartbeat CPU  0 instructions:  215000001 cycles:  679825536 heartbeat IPC: 0.35717 cumulative IPC: 0.20079 (Simulation time: 0 hr 9 min 54 sec) 
Heartbeat CPU  0 instructions:  216000000 cycles:  682604529 heartbeat IPC: 0.35984 cumulative IPC: 0.20156 (Simulation time: 0 hr 9 min 56 sec) 
Heartbeat CPU  0 instructions:  217000000 cycles:  685401016 heartbeat IPC: 0.35759 cumulative IPC: 0.20231 (Simulation time: 0 hr 9 min 59 sec) 
Heartbeat CPU  0 instructions:  218000002 cycles:  688196259 heartbeat IPC: 0.35775 cumulative IPC: 0.20306 (Simulation time: 0 hr 10 min 1 sec) 
Heartbeat CPU  0 instructions:  219000000 cycles:  690967054 heartbeat IPC: 0.36091 cumulative IPC: 0.20381 (Simulation time: 0 hr 10 min 3 sec) 
Heartbeat CPU  0 instructions:  220000000 cycles:  693711104 heartbeat IPC: 0.36442 cumulative IPC: 0.20456 (Simulation time: 0 hr 10 min 6 sec) 
Heartbeat CPU  0 instructions:  221000003 cycles:  696527439 heartbeat IPC: 0.35507 cumulative IPC: 0.20528 (Simulation time: 0 hr 10 min 8 sec) 
Heartbeat CPU  0 instructions:  222000003 cycles:  699321459 heartbeat IPC: 0.35791 cumulative IPC: 0.20600 (Simulation time: 0 hr 10 min 10 sec) 
Heartbeat CPU  0 instructions:  223000000 cycles:  702061197 heartbeat IPC: 0.36500 cumulative IPC: 0.20673 (Simulation time: 0 hr 10 min 12 sec) 
Heartbeat CPU  0 instructions:  224000000 cycles:  704781941 heartbeat IPC: 0.36755 cumulative IPC: 0.20747 (Simulation time: 0 hr 10 min 15 sec) 
Heartbeat CPU  0 instructions:  225000000 cycles:  707425711 heartbeat IPC: 0.37825 cumulative IPC: 0.20822 (Simulation time: 0 hr 10 min 17 sec) 
Heartbeat CPU  0 instructions:  226000002 cycles:  710169921 heartbeat IPC: 0.36440 cumulative IPC: 0.20893 (Simulation time: 0 hr 10 min 19 sec) 
Heartbeat CPU  0 instructions:  227000000 cycles:  712912135 heartbeat IPC: 0.36467 cumulative IPC: 0.20963 (Simulation time: 0 hr 10 min 21 sec) 
Heartbeat CPU  0 instructions:  228000000 cycles:  715609528 heartbeat IPC: 0.37073 cumulative IPC: 0.21035 (Simulation time: 0 hr 10 min 24 sec) 
Heartbeat CPU  0 instructions:  229000003 cycles:  718419025 heartbeat IPC: 0.35594 cumulative IPC: 0.21102 (Simulation time: 0 hr 10 min 26 sec) 
Heartbeat CPU  0 instructions:  230000003 cycles:  721218534 heartbeat IPC: 0.35721 cumulative IPC: 0.21168 (Simulation time: 0 hr 10 min 28 sec) 
Heartbeat CPU  0 instructions:  231000000 cycles:  724010478 heartbeat IPC: 0.35817 cumulative IPC: 0.21235 (Simulation time: 0 hr 10 min 30 sec) 
Heartbeat CPU  0 instructions:  232000000 cycles:  726737104 heartbeat IPC: 0.36675 cumulative IPC: 0.21303 (Simulation time: 0 hr 10 min 33 sec) 
Heartbeat CPU  0 instructions:  233000001 cycles:  729480266 heartbeat IPC: 0.36454 cumulative IPC: 0.21369 (Simulation time: 0 hr 10 min 35 sec) 
Heartbeat CPU  0 instructions:  234000000 cycles:  732221122 heartbeat IPC: 0.36485 cumulative IPC: 0.21436 (Simulation time: 0 hr 10 min 37 sec) 
Heartbeat CPU  0 instructions:  235000000 cycles:  734947891 heartbeat IPC: 0.36673 cumulative IPC: 0.21502 (Simulation time: 0 hr 10 min 40 sec) 
Heartbeat CPU  0 instructions:  236000000 cycles:  737423839 heartbeat IPC: 0.40389 cumulative IPC: 0.21576 (Simulation time: 0 hr 10 min 42 sec) 
Heartbeat CPU  0 instructions:  237000001 cycles:  739769832 heartbeat IPC: 0.42626 cumulative IPC: 0.21654 (Simulation time: 0 hr 10 min 44 sec) 
Heartbeat CPU  0 instructions:  238000000 cycles:  742321573 heartbeat IPC: 0.39189 cumulative IPC: 0.21724 (Simulation time: 0 hr 10 min 46 sec) 
Heartbeat CPU  0 instructions:  239000000 cycles:  745091069 heartbeat IPC: 0.36108 cumulative IPC: 0.21787 (Simulation time: 0 hr 10 min 48 sec) 
Heartbeat CPU  0 instructions:  240000000 cycles:  747764368 heartbeat IPC: 0.37407 cumulative IPC: 0.21852 (Simulation time: 0 hr 10 min 51 sec) 
Heartbeat CPU  0 instructions:  241000000 cycles:  750469228 heartbeat IPC: 0.36970 cumulative IPC: 0.21916 (Simulation time: 0 hr 10 min 53 sec) 
Heartbeat CPU  0 instructions:  242000003 cycles:  753308524 heartbeat IPC: 0.35220 cumulative IPC: 0.21974 (Simulation time: 0 hr 10 min 55 sec) 
Heartbeat CPU  0 instructions:  243000001 cycles:  756081715 heartbeat IPC: 0.36059 cumulative IPC: 0.22034 (Simulation time: 0 hr 10 min 57 sec) 
Heartbeat CPU  0 instructions:  244000000 cycles:  758699459 heartbeat IPC: 0.38201 cumulative IPC: 0.22099 (Simulation time: 0 hr 11 min 0 sec) 
Heartbeat CPU  0 instructions:  245000000 cycles:  761267394 heartbeat IPC: 0.38942 cumulative IPC: 0.22165 (Simulation time: 0 hr 11 min 2 sec) 
Heartbeat CPU  0 instructions:  246000001 cycles:  764011042 heartbeat IPC: 0.36448 cumulative IPC: 0.22225 (Simulation time: 0 hr 11 min 4 sec) 
Heartbeat CPU  0 instructions:  247000002 cycles:  766670738 heartbeat IPC: 0.37598 cumulative IPC: 0.22287 (Simulation time: 0 hr 11 min 7 sec) 
Heartbeat CPU  0 instructions:  248000000 cycles:  769261339 heartbeat IPC: 0.38601 cumulative IPC: 0.22351 (Simulation time: 0 hr 11 min 9 sec) 
Heartbeat CPU  0 instructions:  249000003 cycles:  771820309 heartbeat IPC: 0.39078 cumulative IPC: 0.22415 (Simulation time: 0 hr 11 min 11 sec) 
Heartbeat CPU  0 instructions:  250000000 cycles:  774226318 heartbeat IPC: 0.41562 cumulative IPC: 0.22484 (Simulation time: 0 hr 11 min 13 sec) 
Heartbeat CPU  0 instructions:  251000002 cycles:  776949022 heartbeat IPC: 0.36728 cumulative IPC: 0.22542 (Simulation time: 0 hr 11 min 15 sec) 
Heartbeat CPU  0 instructions:  252000000 cycles:  779663341 heartbeat IPC: 0.36842 cumulative IPC: 0.22600 (Simulation time: 0 hr 11 min 18 sec) 
Heartbeat CPU  0 instructions:  253000000 cycles:  782473962 heartbeat IPC: 0.35579 cumulative IPC: 0.22654 (Simulation time: 0 hr 11 min 20 sec) 
Heartbeat CPU  0 instructions:  254000002 cycles:  785208494 heartbeat IPC: 0.36569 cumulative IPC: 0.22710 (Simulation time: 0 hr 11 min 22 sec) 
Heartbeat CPU  0 instructions:  255000001 cycles:  787944358 heartbeat IPC: 0.36551 cumulative IPC: 0.22766 (Simulation time: 0 hr 11 min 24 sec) 
Heartbeat CPU  0 instructions:  256000000 cycles:  790681763 heartbeat IPC: 0.36531 cumulative IPC: 0.22821 (Simulation time: 0 hr 11 min 27 sec) 
Heartbeat CPU  0 instructions:  257000000 cycles:  793412725 heartbeat IPC: 0.36617 cumulative IPC: 0.22876 (Simulation time: 0 hr 11 min 29 sec) 
Heartbeat CPU  0 instructions:  258000000 cycles:  796129203 heartbeat IPC: 0.36812 cumulative IPC: 0.22931 (Simulation time: 0 hr 11 min 31 sec) 
Heartbeat CPU  0 instructions:  259000000 cycles:  798627987 heartbeat IPC: 0.40019 cumulative IPC: 0.22992 (Simulation time: 0 hr 11 min 34 sec) 
Heartbeat CPU  0 instructions:  260000000 cycles:  801312210 heartbeat IPC: 0.37255 cumulative IPC: 0.23047 (Simulation time: 0 hr 11 min 36 sec) 
Heartbeat CPU  0 instructions:  261000000 cycles:  804029673 heartbeat IPC: 0.36799 cumulative IPC: 0.23101 (Simulation time: 0 hr 11 min 38 sec) 
Heartbeat CPU  0 instructions:  262000000 cycles:  806762564 heartbeat IPC: 0.36591 cumulative IPC: 0.23154 (Simulation time: 0 hr 11 min 40 sec) 
Heartbeat CPU  0 instructions:  263000001 cycles:  809465014 heartbeat IPC: 0.37003 cumulative IPC: 0.23207 (Simulation time: 0 hr 11 min 43 sec) 
Heartbeat CPU  0 instructions:  264000000 cycles:  812101591 heartbeat IPC: 0.37928 cumulative IPC: 0.23262 (Simulation time: 0 hr 11 min 45 sec) 
Heartbeat CPU  0 instructions:  265000002 cycles:  814740884 heartbeat IPC: 0.37889 cumulative IPC: 0.23317 (Simulation time: 0 hr 11 min 47 sec) 
Heartbeat CPU  0 instructions:  266000002 cycles:  817395590 heartbeat IPC: 0.37669 cumulative IPC: 0.23370 (Simulation time: 0 hr 11 min 49 sec) 
Heartbeat CPU  0 instructions:  267000003 cycles:  820139530 heartbeat IPC: 0.36444 cumulative IPC: 0.23421 (Simulation time: 0 hr 11 min 52 sec) 
Heartbeat CPU  0 instructions:  268000000 cycles:  822888564 heartbeat IPC: 0.36376 cumulative IPC: 0.23470 (Simulation time: 0 hr 11 min 54 sec) 
Heartbeat CPU  0 instructions:  269000001 cycles:  825629456 heartbeat IPC: 0.36485 cumulative IPC: 0.23520 (Simulation time: 0 hr 11 min 56 sec) 
Heartbeat CPU  0 instructions:  270000001 cycles:  828336680 heartbeat IPC: 0.36938 cumulative IPC: 0.23570 (Simulation time: 0 hr 11 min 58 sec) 
Heartbeat CPU  0 instructions:  271000003 cycles:  831034791 heartbeat IPC: 0.37063 cumulative IPC: 0.23621 (Simulation time: 0 hr 12 min 1 sec) 
Heartbeat CPU  0 instructions:  272000000 cycles:  833763592 heartbeat IPC: 0.36646 cumulative IPC: 0.23670 (Simulation time: 0 hr 12 min 3 sec) 
Heartbeat CPU  0 instructions:  273000001 cycles:  836457142 heartbeat IPC: 0.37126 cumulative IPC: 0.23719 (Simulation time: 0 hr 12 min 5 sec) 
Heartbeat CPU  0 instructions:  274000003 cycles:  839241503 heartbeat IPC: 0.35915 cumulative IPC: 0.23766 (Simulation time: 0 hr 12 min 7 sec) 
Heartbeat CPU  0 instructions:  275000002 cycles:  841974970 heartbeat IPC: 0.36584 cumulative IPC: 0.23813 (Simulation time: 0 hr 12 min 10 sec) 
Heartbeat CPU  0 instructions:  276000000 cycles:  844637929 heartbeat IPC: 0.37552 cumulative IPC: 0.23863 (Simulation time: 0 hr 12 min 12 sec) 
Heartbeat CPU  0 instructions:  277000000 cycles:  847208956 heartbeat IPC: 0.38895 cumulative IPC: 0.23915 (Simulation time: 0 hr 12 min 14 sec) 
Heartbeat CPU  0 instructions:  278000001 cycles:  849702661 heartbeat IPC: 0.40101 cumulative IPC: 0.23969 (Simulation time: 0 hr 12 min 16 sec) 
Heartbeat CPU  0 instructions:  279000002 cycles:  852286947 heartbeat IPC: 0.38695 cumulative IPC: 0.24021 (Simulation time: 0 hr 12 min 19 sec) 
Heartbeat CPU  0 instructions:  280000000 cycles:  854999229 heartbeat IPC: 0.36869 cumulative IPC: 0.24067 (Simulation time: 0 hr 12 min 21 sec) 
Heartbeat CPU  0 instructions:  281000002 cycles:  857734523 heartbeat IPC: 0.36559 cumulative IPC: 0.24113 (Simulation time: 0 hr 12 min 23 sec) 
Heartbeat CPU  0 instructions:  282000003 cycles:  860375923 heartbeat IPC: 0.37859 cumulative IPC: 0.24161 (Simulation time: 0 hr 12 min 25 sec) 
Heartbeat CPU  0 instructions:  283000001 cycles:  862842532 heartbeat IPC: 0.40541 cumulative IPC: 0.24214 (Simulation time: 0 hr 12 min 28 sec) 
Heartbeat CPU  0 instructions:  284000000 cycles:  865462299 heartbeat IPC: 0.38171 cumulative IPC: 0.24263 (Simulation time: 0 hr 12 min 30 sec) 
Heartbeat CPU  0 instructions:  285000001 cycles:  868137985 heartbeat IPC: 0.37374 cumulative IPC: 0.24309 (Simulation time: 0 hr 12 min 32 sec) 
Heartbeat CPU  0 instructions:  286000000 cycles:  870628889 heartbeat IPC: 0.40146 cumulative IPC: 0.24360 (Simulation time: 0 hr 12 min 34 sec) 
Heartbeat CPU  0 instructions:  287000002 cycles:  873200287 heartbeat IPC: 0.38889 cumulative IPC: 0.24409 (Simulation time: 0 hr 12 min 37 sec) 
Heartbeat CPU  0 instructions:  288000000 cycles:  875915158 heartbeat IPC: 0.36834 cumulative IPC: 0.24453 (Simulation time: 0 hr 12 min 39 sec) 
Heartbeat CPU  0 instructions:  289000000 cycles:  878674266 heartbeat IPC: 0.36244 cumulative IPC: 0.24495 (Simulation time: 0 hr 12 min 41 sec) 
Heartbeat CPU  0 instructions:  290000002 cycles:  881446642 heartbeat IPC: 0.36070 cumulative IPC: 0.24537 (Simulation time: 0 hr 12 min 43 sec) 
Heartbeat CPU  0 instructions:  291000000 cycles:  884302599 heartbeat IPC: 0.35014 cumulative IPC: 0.24575 (Simulation time: 0 hr 12 min 46 sec) 
Heartbeat CPU  0 instructions:  292000000 cycles:  887111871 heartbeat IPC: 0.35596 cumulative IPC: 0.24615 (Simulation time: 0 hr 12 min 48 sec) 
Heartbeat CPU  0 instructions:  293000000 cycles:  889887015 heartbeat IPC: 0.36034 cumulative IPC: 0.24655 (Simulation time: 0 hr 12 min 50 sec) 
Heartbeat CPU  0 instructions:  294000002 cycles:  892630810 heartbeat IPC: 0.36446 cumulative IPC: 0.24696 (Simulation time: 0 hr 12 min 52 sec) 
Heartbeat CPU  0 instructions:  295000001 cycles:  895325074 heartbeat IPC: 0.37116 cumulative IPC: 0.24739 (Simulation time: 0 hr 12 min 55 sec) 
Heartbeat CPU  0 instructions:  296000000 cycles:  898082051 heartbeat IPC: 0.36272 cumulative IPC: 0.24779 (Simulation time: 0 hr 12 min 57 sec) 
Heartbeat CPU  0 instructions:  297000000 cycles:  900790699 heartbeat IPC: 0.36919 cumulative IPC: 0.24821 (Simulation time: 0 hr 12 min 59 sec) 
Heartbeat CPU  0 instructions:  298000000 cycles:  903458247 heartbeat IPC: 0.37488 cumulative IPC: 0.24863 (Simulation time: 0 hr 13 min 1 sec) 
Heartbeat CPU  0 instructions:  299000000 cycles:  906240906 heartbeat IPC: 0.35937 cumulative IPC: 0.24901 (Simulation time: 0 hr 13 min 4 sec) 
Heartbeat CPU  0 instructions:  300000000 cycles:  908949144 heartbeat IPC: 0.36924 cumulative IPC: 0.24942 (Simulation time: 0 hr 13 min 6 sec) 
Heartbeat CPU  0 instructions:  301000000 cycles:  911724872 heartbeat IPC: 0.36027 cumulative IPC: 0.24980 (Simulation time: 0 hr 13 min 8 sec) 
Heartbeat CPU  0 instructions:  302000000 cycles:  914477972 heartbeat IPC: 0.36323 cumulative IPC: 0.25019 (Simulation time: 0 hr 13 min 10 sec) 
Heartbeat CPU  0 instructions:  303000000 cycles:  917362981 heartbeat IPC: 0.34662 cumulative IPC: 0.25053 (Simulation time: 0 hr 13 min 13 sec) 
Heartbeat CPU  0 instructions:  304000000 cycles:  920088840 heartbeat IPC: 0.36686 cumulative IPC: 0.25092 (Simulation time: 0 hr 13 min 15 sec) 
Heartbeat CPU  0 instructions:  305000002 cycles:  922724847 heartbeat IPC: 0.37936 cumulative IPC: 0.25134 (Simulation time: 0 hr 13 min 17 sec) 
Heartbeat CPU  0 instructions:  306000000 cycles:  925614350 heartbeat IPC: 0.34608 cumulative IPC: 0.25167 (Simulation time: 0 hr 13 min 19 sec) 
Heartbeat CPU  0 instructions:  307000000 cycles:  928337370 heartbeat IPC: 0.36724 cumulative IPC: 0.25206 (Simulation time: 0 hr 13 min 22 sec) 
Heartbeat CPU  0 instructions:  308000000 cycles:  931063641 heartbeat IPC: 0.36680 cumulative IPC: 0.25244 (Simulation time: 0 hr 13 min 24 sec) 
Heartbeat CPU  0 instructions:  309000000 cycles:  933742430 heartbeat IPC: 0.37330 cumulative IPC: 0.25283 (Simulation time: 0 hr 13 min 26 sec) 
Heartbeat CPU  0 instructions:  310000000 cycles:  936181167 heartbeat IPC: 0.41005 cumulative IPC: 0.25329 (Simulation time: 0 hr 13 min 28 sec) 
Heartbeat CPU  0 instructions:  311000000 cycles:  938098947 heartbeat IPC: 0.52144 cumulative IPC: 0.25391 (Simulation time: 0 hr 13 min 30 sec) 
Heartbeat CPU  0 instructions:  312000000 cycles:  940779203 heartbeat IPC: 0.37310 cumulative IPC: 0.25429 (Simulation time: 0 hr 13 min 32 sec) 
Heartbeat CPU  0 instructions:  313000002 cycles:  943529105 heartbeat IPC: 0.36365 cumulative IPC: 0.25465 (Simulation time: 0 hr 13 min 35 sec) 
Heartbeat CPU  0 instructions:  314000002 cycles:  946269451 heartbeat IPC: 0.36492 cumulative IPC: 0.25501 (Simulation time: 0 hr 13 min 37 sec) 
Heartbeat CPU  0 instructions:  315000001 cycles:  949042286 heartbeat IPC: 0.36064 cumulative IPC: 0.25536 (Simulation time: 0 hr 13 min 39 sec) 
Heartbeat CPU  0 instructions:  316000000 cycles:  951850570 heartbeat IPC: 0.35609 cumulative IPC: 0.25569 (Simulation time: 0 hr 13 min 41 sec) 
Heartbeat CPU  0 instructions:  317000003 cycles:  954603030 heartbeat IPC: 0.36331 cumulative IPC: 0.25604 (Simulation time: 0 hr 13 min 43 sec) 
Heartbeat CPU  0 instructions:  318000000 cycles:  957312554 heartbeat IPC: 0.36907 cumulative IPC: 0.25640 (Simulation time: 0 hr 13 min 46 sec) 
Heartbeat CPU  0 instructions:  319000000 cycles:  959949876 heartbeat IPC: 0.37917 cumulative IPC: 0.25678 (Simulation time: 0 hr 13 min 48 sec) 
Heartbeat CPU  0 instructions:  320000000 cycles:  962614652 heartbeat IPC: 0.37527 cumulative IPC: 0.25715 (Simulation time: 0 hr 13 min 50 sec) 
Heartbeat CPU  0 instructions:  321000003 cycles:  965344615 heartbeat IPC: 0.36631 cumulative IPC: 0.25750 (Simulation time: 0 hr 13 min 52 sec) 
Heartbeat CPU  0 instructions:  322000002 cycles:  967960743 heartbeat IPC: 0.38224 cumulative IPC: 0.25788 (Simulation time: 0 hr 13 min 55 sec) 
Heartbeat CPU  0 instructions:  323000000 cycles:  970590135 heartbeat IPC: 0.38032 cumulative IPC: 0.25825 (Simulation time: 0 hr 13 min 57 sec) 
Heartbeat CPU  0 instructions:  324000000 cycles:  972872093 heartbeat IPC: 0.43822 cumulative IPC: 0.25873 (Simulation time: 0 hr 13 min 59 sec) 
Heartbeat CPU  0 instructions:  325000001 cycles:  975307354 heartbeat IPC: 0.41063 cumulative IPC: 0.25915 (Simulation time: 0 hr 14 min 1 sec) 
Heartbeat CPU  0 instructions:  326000000 cycles:  977775276 heartbeat IPC: 0.40520 cumulative IPC: 0.25957 (Simulation time: 0 hr 14 min 3 sec) 
Heartbeat CPU  0 instructions:  327000000 cycles:  980201139 heartbeat IPC: 0.41222 cumulative IPC: 0.25999 (Simulation time: 0 hr 14 min 5 sec) 
Heartbeat CPU  0 instructions:  328000000 cycles:  982882327 heartbeat IPC: 0.37297 cumulative IPC: 0.26034 (Simulation time: 0 hr 14 min 8 sec) 
Heartbeat CPU  0 instructions:  329000003 cycles:  985382453 heartbeat IPC: 0.39998 cumulative IPC: 0.26073 (Simulation time: 0 hr 14 min 10 sec) 
Heartbeat CPU  0 instructions:  330000001 cycles:  987728388 heartbeat IPC: 0.42627 cumulative IPC: 0.26117 (Simulation time: 0 hr 14 min 12 sec) 
Heartbeat CPU  0 instructions:  331000001 cycles:  990099851 heartbeat IPC: 0.42168 cumulative IPC: 0.26161 (Simulation time: 0 hr 14 min 14 sec) 
Heartbeat CPU  0 instructions:  332000000 cycles:  992694184 heartbeat IPC: 0.38546 cumulative IPC: 0.26197 (Simulation time: 0 hr 14 min 16 sec) 
Heartbeat CPU  0 instructions:  333000000 cycles:  995280055 heartbeat IPC: 0.38672 cumulative IPC: 0.26233 (Simulation time: 0 hr 14 min 19 sec) 
Heartbeat CPU  0 instructions:  334000001 cycles:  997827530 heartbeat IPC: 0.39255 cumulative IPC: 0.26270 (Simulation time: 0 hr 14 min 21 sec) 
Heartbeat CPU  0 instructions:  335000000 cycles: 1000439418 heartbeat IPC: 0.38286 cumulative IPC: 0.26306 (Simulation time: 0 hr 14 min 23 sec) 
Heartbeat CPU  0 instructions:  336000000 cycles: 1002840481 heartbeat IPC: 0.41648 cumulative IPC: 0.26347 (Simulation time: 0 hr 14 min 25 sec) 
Heartbeat CPU  0 instructions:  337000000 cycles: 1005232350 heartbeat IPC: 0.41808 cumulative IPC: 0.26388 (Simulation time: 0 hr 14 min 27 sec) 
Heartbeat CPU  0 instructions:  338000001 cycles: 1007712931 heartbeat IPC: 0.40313 cumulative IPC: 0.26426 (Simulation time: 0 hr 14 min 30 sec) 
Heartbeat CPU  0 instructions:  339000000 cycles: 1010181642 heartbeat IPC: 0.40507 cumulative IPC: 0.26465 (Simulation time: 0 hr 14 min 32 sec) 
Heartbeat CPU  0 instructions:  340000000 cycles: 1012813926 heartbeat IPC: 0.37990 cumulative IPC: 0.26498 (Simulation time: 0 hr 14 min 34 sec) 
Heartbeat CPU  0 instructions:  341000002 cycles: 1015426035 heartbeat IPC: 0.38283 cumulative IPC: 0.26532 (Simulation time: 0 hr 14 min 36 sec) 
Heartbeat CPU  0 instructions:  342000001 cycles: 1018196995 heartbeat IPC: 0.36089 cumulative IPC: 0.26561 (Simulation time: 0 hr 14 min 38 sec) 
Heartbeat CPU  0 instructions:  343000003 cycles: 1020795208 heartbeat IPC: 0.38488 cumulative IPC: 0.26595 (Simulation time: 0 hr 14 min 41 sec) 
Heartbeat CPU  0 instructions:  344000000 cycles: 1023325762 heartbeat IPC: 0.39517 cumulative IPC: 0.26631 (Simulation time: 0 hr 14 min 43 sec) 
Heartbeat CPU  0 instructions:  345000003 cycles: 1026136839 heartbeat IPC: 0.35574 cumulative IPC: 0.26658 (Simulation time: 0 hr 14 min 45 sec) 
Heartbeat CPU  0 instructions:  346000001 cycles: 1028867327 heartbeat IPC: 0.36623 cumulative IPC: 0.26688 (Simulation time: 0 hr 14 min 47 sec) 
Heartbeat CPU  0 instructions:  347000002 cycles: 1031368035 heartbeat IPC: 0.39989 cumulative IPC: 0.26724 (Simulation time: 0 hr 14 min 50 sec) 
Heartbeat CPU  0 instructions:  348000000 cycles: 1033738243 heartbeat IPC: 0.42190 cumulative IPC: 0.26763 (Simulation time: 0 hr 14 min 52 sec) 
Heartbeat CPU  0 instructions:  349000000 cycles: 1036382739 heartbeat IPC: 0.37814 cumulative IPC: 0.26795 (Simulation time: 0 hr 14 min 54 sec) 
Heartbeat CPU  0 instructions:  350000001 cycles: 1038907036 heartbeat IPC: 0.39615 cumulative IPC: 0.26829 (Simulation time: 0 hr 14 min 56 sec) 
Heartbeat CPU  0 instructions:  351000000 cycles: 1041714051 heartbeat IPC: 0.35625 cumulative IPC: 0.26856 (Simulation time: 0 hr 14 min 59 sec) 
Heartbeat CPU  0 instructions:  352000000 cycles: 1044398318 heartbeat IPC: 0.37254 cumulative IPC: 0.26886 (Simulation time: 0 hr 15 min 1 sec) 
Heartbeat CPU  0 instructions:  353000002 cycles: 1046974576 heartbeat IPC: 0.38816 cumulative IPC: 0.26918 (Simulation time: 0 hr 15 min 3 sec) 
Heartbeat CPU  0 instructions:  354000000 cycles: 1049702626 heartbeat IPC: 0.36656 cumulative IPC: 0.26946 (Simulation time: 0 hr 15 min 5 sec) 
Heartbeat CPU  0 instructions:  355000003 cycles: 1052450513 heartbeat IPC: 0.36392 cumulative IPC: 0.26974 (Simulation time: 0 hr 15 min 8 sec) 
Heartbeat CPU  0 instructions:  356000000 cycles: 1055190789 heartbeat IPC: 0.36493 cumulative IPC: 0.27001 (Simulation time: 0 hr 15 min 10 sec) 
Heartbeat CPU  0 instructions:  357000000 cycles: 1057872814 heartbeat IPC: 0.37285 cumulative IPC: 0.27030 (Simulation time: 0 hr 15 min 12 sec) 
Heartbeat CPU  0 instructions:  358000000 cycles: 1060585157 heartbeat IPC: 0.36868 cumulative IPC: 0.27058 (Simulation time: 0 hr 15 min 14 sec) 
Heartbeat CPU  0 instructions:  359000000 cycles: 1063277841 heartbeat IPC: 0.37138 cumulative IPC: 0.27087 (Simulation time: 0 hr 15 min 17 sec) 
Heartbeat CPU  0 instructions:  360000000 cycles: 1065962261 heartbeat IPC: 0.37252 cumulative IPC: 0.27115 (Simulation time: 0 hr 15 min 19 sec) 
Heartbeat CPU  0 instructions:  361000000 cycles: 1068498256 heartbeat IPC: 0.39432 cumulative IPC: 0.27148 (Simulation time: 0 hr 15 min 21 sec) 
Heartbeat CPU  0 instructions:  362000000 cycles: 1071403557 heartbeat IPC: 0.34420 cumulative IPC: 0.27170 (Simulation time: 0 hr 15 min 23 sec) 
Heartbeat CPU  0 instructions:  363000000 cycles: 1074193235 heartbeat IPC: 0.35846 cumulative IPC: 0.27195 (Simulation time: 0 hr 15 min 26 sec) 
Heartbeat CPU  0 instructions:  364000000 cycles: 1076641310 heartbeat IPC: 0.40848 cumulative IPC: 0.27229 (Simulation time: 0 hr 15 min 28 sec) 
Heartbeat CPU  0 instructions:  365000000 cycles: 1079093074 heartbeat IPC: 0.40787 cumulative IPC: 0.27263 (Simulation time: 0 hr 15 min 30 sec) 
Heartbeat CPU  0 instructions:  366000002 cycles: 1080994611 heartbeat IPC: 0.52589 cumulative IPC: 0.27313 (Simulation time: 0 hr 15 min 32 sec) 
Heartbeat CPU  0 instructions:  367000000 cycles: 1082746967 heartbeat IPC: 0.57066 cumulative IPC: 0.27366 (Simulation time: 0 hr 15 min 34 sec) 
Heartbeat CPU  0 instructions:  368000000 cycles: 1085717332 heartbeat IPC: 0.33666 cumulative IPC: 0.27385 (Simulation time: 0 hr 15 min 36 sec) 
Heartbeat CPU  0 instructions:  369000000 cycles: 1088496589 heartbeat IPC: 0.35981 cumulative IPC: 0.27410 (Simulation time: 0 hr 15 min 38 sec) 
Heartbeat CPU  0 instructions:  370000000 cycles: 1091625543 heartbeat IPC: 0.31960 cumulative IPC: 0.27424 (Simulation time: 0 hr 15 min 41 sec) 
Heartbeat CPU  0 instructions:  371000003 cycles: 1094296434 heartbeat IPC: 0.37441 cumulative IPC: 0.27451 (Simulation time: 0 hr 15 min 43 sec) 
Heartbeat CPU  0 instructions:  372000000 cycles: 1096960135 heartbeat IPC: 0.37542 cumulative IPC: 0.27478 (Simulation time: 0 hr 15 min 45 sec) 
Heartbeat CPU  0 instructions:  373000002 cycles: 1099624687 heartbeat IPC: 0.37530 cumulative IPC: 0.27505 (Simulation time: 0 hr 15 min 47 sec) 
Heartbeat CPU  0 instructions:  374000001 cycles: 1102424035 heartbeat IPC: 0.35723 cumulative IPC: 0.27529 (Simulation time: 0 hr 15 min 50 sec) 
Heartbeat CPU  0 instructions:  375000000 cycles: 1105204629 heartbeat IPC: 0.35964 cumulative IPC: 0.27552 (Simulation time: 0 hr 15 min 52 sec) 
Heartbeat CPU  0 instructions:  376000000 cycles: 1107987457 heartbeat IPC: 0.35935 cumulative IPC: 0.27575 (Simulation time: 0 hr 15 min 54 sec) 
Heartbeat CPU  0 instructions:  377000002 cycles: 1110763857 heartbeat IPC: 0.36018 cumulative IPC: 0.27599 (Simulation time: 0 hr 15 min 56 sec) 
Heartbeat CPU  0 instructions:  378000001 cycles: 1113526720 heartbeat IPC: 0.36194 cumulative IPC: 0.27622 (Simulation time: 0 hr 15 min 59 sec) 
Heartbeat CPU  0 instructions:  379000000 cycles: 1116387658 heartbeat IPC: 0.34954 cumulative IPC: 0.27643 (Simulation time: 0 hr 16 min 1 sec) 
Heartbeat CPU  0 instructions:  380000000 cycles: 1119219197 heartbeat IPC: 0.35316 cumulative IPC: 0.27665 (Simulation time: 0 hr 16 min 3 sec) 
Heartbeat CPU  0 instructions:  381000002 cycles: 1122242203 heartbeat IPC: 0.33080 cumulative IPC: 0.27681 (Simulation time: 0 hr 16 min 6 sec) 
Heartbeat CPU  0 instructions:  382000000 cycles: 1124961668 heartbeat IPC: 0.36772 cumulative IPC: 0.27705 (Simulation time: 0 hr 16 min 8 sec) 
Heartbeat CPU  0 instructions:  383000001 cycles: 1127685319 heartbeat IPC: 0.36715 cumulative IPC: 0.27729 (Simulation time: 0 hr 16 min 10 sec) 
Heartbeat CPU  0 instructions:  384000000 cycles: 1130492454 heartbeat IPC: 0.35623 cumulative IPC: 0.27751 (Simulation time: 0 hr 16 min 12 sec) 
Heartbeat CPU  0 instructions:  385000002 cycles: 1133219578 heartbeat IPC: 0.36669 cumulative IPC: 0.27774 (Simulation time: 0 hr 16 min 14 sec) 
Heartbeat CPU  0 instructions:  386000000 cycles: 1135800079 heartbeat IPC: 0.38752 cumulative IPC: 0.27802 (Simulation time: 0 hr 16 min 17 sec) 
Heartbeat CPU  0 instructions:  387000000 cycles: 1138418845 heartbeat IPC: 0.38186 cumulative IPC: 0.27828 (Simulation time: 0 hr 16 min 19 sec) 
Heartbeat CPU  0 instructions:  388000000 cycles: 1141393390 heartbeat IPC: 0.33619 cumulative IPC: 0.27845 (Simulation time: 0 hr 16 min 21 sec) 
Heartbeat CPU  0 instructions:  389000000 cycles: 1144066910 heartbeat IPC: 0.37404 cumulative IPC: 0.27870 (Simulation time: 0 hr 16 min 23 sec) 
Heartbeat CPU  0 instructions:  390000001 cycles: 1147134931 heartbeat IPC: 0.32594 cumulative IPC: 0.27883 (Simulation time: 0 hr 16 min 26 sec) 
Heartbeat CPU  0 instructions:  391000001 cycles: 1150046763 heartbeat IPC: 0.34343 cumulative IPC: 0.27902 (Simulation time: 0 hr 16 min 28 sec) 
Heartbeat CPU  0 instructions:  392000000 cycles: 1152687767 heartbeat IPC: 0.37864 cumulative IPC: 0.27927 (Simulation time: 0 hr 16 min 30 sec) 
Heartbeat CPU  0 instructions:  393000001 cycles: 1155487510 heartbeat IPC: 0.35718 cumulative IPC: 0.27947 (Simulation time: 0 hr 16 min 33 sec) 
Heartbeat CPU  0 instructions:  394000002 cycles: 1158360658 heartbeat IPC: 0.34805 cumulative IPC: 0.27966 (Simulation time: 0 hr 16 min 35 sec) 
Heartbeat CPU  0 instructions:  395000000 cycles: 1160972546 heartbeat IPC: 0.38286 cumulative IPC: 0.27992 (Simulation time: 0 hr 16 min 37 sec) 
Heartbeat CPU  0 instructions:  396000000 cycles: 1163969821 heartbeat IPC: 0.33364 cumulative IPC: 0.28007 (Simulation time: 0 hr 16 min 40 sec) 
Heartbeat CPU  0 instructions:  397000000 cycles: 1166901696 heartbeat IPC: 0.34108 cumulative IPC: 0.28024 (Simulation time: 0 hr 16 min 42 sec) 
Heartbeat CPU  0 instructions:  398000000 cycles: 1169453657 heartbeat IPC: 0.39186 cumulative IPC: 0.28051 (Simulation time: 0 hr 16 min 44 sec) 
Heartbeat CPU  0 instructions:  399000000 cycles: 1172406749 heartbeat IPC: 0.33863 cumulative IPC: 0.28067 (Simulation time: 0 hr 16 min 46 sec) 
Heartbeat CPU  0 instructions:  400000000 cycles: 1175130554 heartbeat IPC: 0.36713 cumulative IPC: 0.28089 (Simulation time: 0 hr 16 min 49 sec) 
Heartbeat CPU  0 instructions:  401000003 cycles: 1178026403 heartbeat IPC: 0.34532 cumulative IPC: 0.28106 (Simulation time: 0 hr 16 min 51 sec) 
Heartbeat CPU  0 instructions:  402000001 cycles: 1180750944 heartbeat IPC: 0.36703 cumulative IPC: 0.28128 (Simulation time: 0 hr 16 min 53 sec) 
Heartbeat CPU  0 instructions:  403000001 cycles: 1183253195 heartbeat IPC: 0.39964 cumulative IPC: 0.28156 (Simulation time: 0 hr 16 min 55 sec) 
Heartbeat CPU  0 instructions:  404000000 cycles: 1186126268 heartbeat IPC: 0.34806 cumulative IPC: 0.28173 (Simulation time: 0 hr 16 min 58 sec) 
Heartbeat CPU  0 instructions:  405000001 cycles: 1188972202 heartbeat IPC: 0.35138 cumulative IPC: 0.28192 (Simulation time: 0 hr 17 min 0 sec) 
Heartbeat CPU  0 instructions:  406000002 cycles: 1191818769 heartbeat IPC: 0.35130 cumulative IPC: 0.28210 (Simulation time: 0 hr 17 min 2 sec) 
Heartbeat CPU  0 instructions:  407000000 cycles: 1194490029 heartbeat IPC: 0.37435 cumulative IPC: 0.28233 (Simulation time: 0 hr 17 min 4 sec) 
Heartbeat CPU  0 instructions:  408000000 cycles: 1197264926 heartbeat IPC: 0.36037 cumulative IPC: 0.28252 (Simulation time: 0 hr 17 min 6 sec) 
Heartbeat CPU  0 instructions:  409000003 cycles: 1200010921 heartbeat IPC: 0.36417 cumulative IPC: 0.28273 (Simulation time: 0 hr 17 min 9 sec) 
Heartbeat CPU  0 instructions:  410000002 cycles: 1202668057 heartbeat IPC: 0.37634 cumulative IPC: 0.28296 (Simulation time: 0 hr 17 min 11 sec) 
Heartbeat CPU  0 instructions:  411000000 cycles: 1205448529 heartbeat IPC: 0.35965 cumulative IPC: 0.28315 (Simulation time: 0 hr 17 min 13 sec) 
Heartbeat CPU  0 instructions:  412000000 cycles: 1208131862 heartbeat IPC: 0.37267 cumulative IPC: 0.28337 (Simulation time: 0 hr 17 min 15 sec) 
Heartbeat CPU  0 instructions:  413000001 cycles: 1210952443 heartbeat IPC: 0.35454 cumulative IPC: 0.28355 (Simulation time: 0 hr 17 min 17 sec) 
Heartbeat CPU  0 instructions:  414000003 cycles: 1213611933 heartbeat IPC: 0.37601 cumulative IPC: 0.28377 (Simulation time: 0 hr 17 min 20 sec) 
Heartbeat CPU  0 instructions:  415000002 cycles: 1216299442 heartbeat IPC: 0.37209 cumulative IPC: 0.28399 (Simulation time: 0 hr 17 min 22 sec) 
Heartbeat CPU  0 instructions:  416000000 cycles: 1218994051 heartbeat IPC: 0.37111 cumulative IPC: 0.28420 (Simulation time: 0 hr 17 min 24 sec) 
Heartbeat CPU  0 instructions:  417000003 cycles: 1221755133 heartbeat IPC: 0.36218 cumulative IPC: 0.28439 (Simulation time: 0 hr 17 min 26 sec) 
Heartbeat CPU  0 instructions:  418000001 cycles: 1224530195 heartbeat IPC: 0.36035 cumulative IPC: 0.28458 (Simulation time: 0 hr 17 min 28 sec) 
Heartbeat CPU  0 instructions:  419000000 cycles: 1227355879 heartbeat IPC: 0.35390 cumulative IPC: 0.28475 (Simulation time: 0 hr 17 min 31 sec) 
Heartbeat CPU  0 instructions:  420000000 cycles: 1230107047 heartbeat IPC: 0.36348 cumulative IPC: 0.28495 (Simulation time: 0 hr 17 min 33 sec) 
Heartbeat CPU  0 instructions:  421000000 cycles: 1232647459 heartbeat IPC: 0.39364 cumulative IPC: 0.28519 (Simulation time: 0 hr 17 min 35 sec) 
Heartbeat CPU  0 instructions:  422000001 cycles: 1235483380 heartbeat IPC: 0.35262 cumulative IPC: 0.28536 (Simulation time: 0 hr 17 min 37 sec) 
Heartbeat CPU  0 instructions:  423000003 cycles: 1238198336 heartbeat IPC: 0.36833 cumulative IPC: 0.28556 (Simulation time: 0 hr 17 min 39 sec) 
Heartbeat CPU  0 instructions:  424000000 cycles: 1240795062 heartbeat IPC: 0.38510 cumulative IPC: 0.28579 (Simulation time: 0 hr 17 min 42 sec) 
Heartbeat CPU  0 instructions:  425000001 cycles: 1243529867 heartbeat IPC: 0.36566 cumulative IPC: 0.28598 (Simulation time: 0 hr 17 min 44 sec) 
Heartbeat CPU  0 instructions:  426000003 cycles: 1246201579 heartbeat IPC: 0.37429 cumulative IPC: 0.28619 (Simulation time: 0 hr 17 min 46 sec) 
Heartbeat CPU  0 instructions:  427000002 cycles: 1248809154 heartbeat IPC: 0.38350 cumulative IPC: 0.28641 (Simulation time: 0 hr 17 min 48 sec) 
Heartbeat CPU  0 instructions:  428000000 cycles: 1251405227 heartbeat IPC: 0.38520 cumulative IPC: 0.28663 (Simulation time: 0 hr 17 min 50 sec) 
Heartbeat CPU  0 instructions:  429000003 cycles: 1253980918 heartbeat IPC: 0.38825 cumulative IPC: 0.28686 (Simulation time: 0 hr 17 min 53 sec) 
Heartbeat CPU  0 instructions:  430000002 cycles: 1256748074 heartbeat IPC: 0.36138 cumulative IPC: 0.28704 (Simulation time: 0 hr 17 min 55 sec) 
Heartbeat CPU  0 instructions:  431000001 cycles: 1259280172 heartbeat IPC: 0.39493 cumulative IPC: 0.28728 (Simulation time: 0 hr 17 min 57 sec) 
Heartbeat CPU  0 instructions:  432000000 cycles: 1261991732 heartbeat IPC: 0.36879 cumulative IPC: 0.28747 (Simulation time: 0 hr 17 min 59 sec) 
Heartbeat CPU  0 instructions:  433000003 cycles: 1264690961 heartbeat IPC: 0.37048 cumulative IPC: 0.28766 (Simulation time: 0 hr 18 min 1 sec) 
Heartbeat CPU  0 instructions:  434000000 cycles: 1267267146 heartbeat IPC: 0.38817 cumulative IPC: 0.28789 (Simulation time: 0 hr 18 min 4 sec) 
Heartbeat CPU  0 instructions:  435000000 cycles: 1270073453 heartbeat IPC: 0.35634 cumulative IPC: 0.28805 (Simulation time: 0 hr 18 min 6 sec) 
Heartbeat CPU  0 instructions:  436000000 cycles: 1272412851 heartbeat IPC: 0.42746 cumulative IPC: 0.28833 (Simulation time: 0 hr 18 min 8 sec) 
Heartbeat CPU  0 instructions:  437000003 cycles: 1275006020 heartbeat IPC: 0.38563 cumulative IPC: 0.28855 (Simulation time: 0 hr 18 min 10 sec) 
Heartbeat CPU  0 instructions:  438000001 cycles: 1277875049 heartbeat IPC: 0.34855 cumulative IPC: 0.28870 (Simulation time: 0 hr 18 min 12 sec) 
Heartbeat CPU  0 instructions:  439000000 cycles: 1280751894 heartbeat IPC: 0.34760 cumulative IPC: 0.28884 (Simulation time: 0 hr 18 min 15 sec) 
Heartbeat CPU  0 instructions:  440000000 cycles: 1283528708 heartbeat IPC: 0.36012 cumulative IPC: 0.28901 (Simulation time: 0 hr 18 min 17 sec) 
Heartbeat CPU  0 instructions:  441000003 cycles: 1286316920 heartbeat IPC: 0.35865 cumulative IPC: 0.28917 (Simulation time: 0 hr 18 min 19 sec) 
Heartbeat CPU  0 instructions:  442000002 cycles: 1289087830 heartbeat IPC: 0.36089 cumulative IPC: 0.28934 (Simulation time: 0 hr 18 min 21 sec) 
Heartbeat CPU  0 instructions:  443000001 cycles: 1291925020 heartbeat IPC: 0.35246 cumulative IPC: 0.28949 (Simulation time: 0 hr 18 min 24 sec) 
Heartbeat CPU  0 instructions:  444000000 cycles: 1294706199 heartbeat IPC: 0.35956 cumulative IPC: 0.28966 (Simulation time: 0 hr 18 min 26 sec) 
Heartbeat CPU  0 instructions:  445000000 cycles: 1297573510 heartbeat IPC: 0.34876 cumulative IPC: 0.28980 (Simulation time: 0 hr 18 min 28 sec) 
Heartbeat CPU  0 instructions:  446000002 cycles: 1300425897 heartbeat IPC: 0.35058 cumulative IPC: 0.28994 (Simulation time: 0 hr 18 min 30 sec) 
Heartbeat CPU  0 instructions:  447000000 cycles: 1303232686 heartbeat IPC: 0.35628 cumulative IPC: 0.29010 (Simulation time: 0 hr 18 min 33 sec) 
Heartbeat CPU  0 instructions:  448000000 cycles: 1305768359 heartbeat IPC: 0.39437 cumulative IPC: 0.29032 (Simulation time: 0 hr 18 min 35 sec) 
Heartbeat CPU  0 instructions:  449000001 cycles: 1308633247 heartbeat IPC: 0.34905 cumulative IPC: 0.29046 (Simulation time: 0 hr 18 min 37 sec) 
Heartbeat CPU  0 instructions:  450000002 cycles: 1311406682 heartbeat IPC: 0.36056 cumulative IPC: 0.29062 (Simulation time: 0 hr 18 min 39 sec) 
Heartbeat CPU  0 instructions:  451000001 cycles: 1314096709 heartbeat IPC: 0.37174 cumulative IPC: 0.29080 (Simulation time: 0 hr 18 min 42 sec) 
Heartbeat CPU  0 instructions:  452000000 cycles: 1316926217 heartbeat IPC: 0.35342 cumulative IPC: 0.29095 (Simulation time: 0 hr 18 min 44 sec) 
Heartbeat CPU  0 instructions:  453000001 cycles: 1319728580 heartbeat IPC: 0.35684 cumulative IPC: 0.29110 (Simulation time: 0 hr 18 min 46 sec) 
Heartbeat CPU  0 instructions:  454000003 cycles: 1322594676 heartbeat IPC: 0.34891 cumulative IPC: 0.29124 (Simulation time: 0 hr 18 min 48 sec) 
Heartbeat CPU  0 instructions:  455000000 cycles: 1325313569 heartbeat IPC: 0.36780 cumulative IPC: 0.29141 (Simulation time: 0 hr 18 min 51 sec) 
Heartbeat CPU  0 instructions:  456000000 cycles: 1328143386 heartbeat IPC: 0.35338 cumulative IPC: 0.29155 (Simulation time: 0 hr 18 min 53 sec) 
Heartbeat CPU  0 instructions:  457000000 cycles: 1330875051 heartbeat IPC: 0.36608 cumulative IPC: 0.29172 (Simulation time: 0 hr 18 min 55 sec) 
Heartbeat CPU  0 instructions:  458000003 cycles: 1333673528 heartbeat IPC: 0.35734 cumulative IPC: 0.29187 (Simulation time: 0 hr 18 min 57 sec) 
Heartbeat CPU  0 instructions:  459000001 cycles: 1336417958 heartbeat IPC: 0.36437 cumulative IPC: 0.29203 (Simulation time: 0 hr 19 min 0 sec) 
Heartbeat CPU  0 instructions:  460000000 cycles: 1339148450 heartbeat IPC: 0.36623 cumulative IPC: 0.29219 (Simulation time: 0 hr 19 min 2 sec) 
Heartbeat CPU  0 instructions:  461000002 cycles: 1341922412 heartbeat IPC: 0.36050 cumulative IPC: 0.29235 (Simulation time: 0 hr 19 min 4 sec) 
Heartbeat CPU  0 instructions:  462000001 cycles: 1344653024 heartbeat IPC: 0.36622 cumulative IPC: 0.29251 (Simulation time: 0 hr 19 min 7 sec) 
Heartbeat CPU  0 instructions:  463000001 cycles: 1347493377 heartbeat IPC: 0.35207 cumulative IPC: 0.29265 (Simulation time: 0 hr 19 min 9 sec) 
Heartbeat CPU  0 instructions:  464000000 cycles: 1350303406 heartbeat IPC: 0.35587 cumulative IPC: 0.29279 (Simulation time: 0 hr 19 min 12 sec) 
Heartbeat CPU  0 instructions:  465000001 cycles: 1352927929 heartbeat IPC: 0.38102 cumulative IPC: 0.29298 (Simulation time: 0 hr 19 min 14 sec) 
Heartbeat CPU  0 instructions:  466000000 cycles: 1355660977 heartbeat IPC: 0.36589 cumulative IPC: 0.29314 (Simulation time: 0 hr 19 min 16 sec) 
Heartbeat CPU  0 instructions:  467000003 cycles: 1358376308 heartbeat IPC: 0.36828 cumulative IPC: 0.29330 (Simulation time: 0 hr 19 min 19 sec) 
Heartbeat CPU  0 instructions:  468000000 cycles: 1361019104 heartbeat IPC: 0.37839 cumulative IPC: 0.29348 (Simulation time: 0 hr 19 min 21 sec) 
Heartbeat CPU  0 instructions:  469000002 cycles: 1363603671 heartbeat IPC: 0.38691 cumulative IPC: 0.29367 (Simulation time: 0 hr 19 min 24 sec) 
Heartbeat CPU  0 instructions:  470000000 cycles: 1366316832 heartbeat IPC: 0.36857 cumulative IPC: 0.29383 (Simulation time: 0 hr 19 min 26 sec) 
Heartbeat CPU  0 instructions:  471000000 cycles: 1368909213 heartbeat IPC: 0.38575 cumulative IPC: 0.29402 (Simulation time: 0 hr 19 min 28 sec) 
Heartbeat CPU  0 instructions:  472000000 cycles: 1371578125 heartbeat IPC: 0.37468 cumulative IPC: 0.29419 (Simulation time: 0 hr 19 min 31 sec) 
Heartbeat CPU  0 instructions:  473000001 cycles: 1374518148 heartbeat IPC: 0.34013 cumulative IPC: 0.29430 (Simulation time: 0 hr 19 min 33 sec) 
Heartbeat CPU  0 instructions:  474000000 cycles: 1377142827 heartbeat IPC: 0.38100 cumulative IPC: 0.29448 (Simulation time: 0 hr 19 min 35 sec) 
Heartbeat CPU  0 instructions:  475000000 cycles: 1379966352 heartbeat IPC: 0.35417 cumulative IPC: 0.29461 (Simulation time: 0 hr 19 min 38 sec) 
Heartbeat CPU  0 instructions:  476000000 cycles: 1382789931 heartbeat IPC: 0.35416 cumulative IPC: 0.29474 (Simulation time: 0 hr 19 min 40 sec) 
Heartbeat CPU  0 instructions:  477000003 cycles: 1385527110 heartbeat IPC: 0.36534 cumulative IPC: 0.29489 (Simulation time: 0 hr 19 min 43 sec) 
Heartbeat CPU  0 instructions:  478000001 cycles: 1388196734 heartbeat IPC: 0.37458 cumulative IPC: 0.29506 (Simulation time: 0 hr 19 min 45 sec) 
Heartbeat CPU  0 instructions:  479000001 cycles: 1390813652 heartbeat IPC: 0.38213 cumulative IPC: 0.29524 (Simulation time: 0 hr 19 min 47 sec) 
Heartbeat CPU  0 instructions:  480000000 cycles: 1393675153 heartbeat IPC: 0.34947 cumulative IPC: 0.29536 (Simulation time: 0 hr 19 min 50 sec) 
Heartbeat CPU  0 instructions:  481000000 cycles: 1396354876 heartbeat IPC: 0.37317 cumulative IPC: 0.29552 (Simulation time: 0 hr 19 min 52 sec) 
Heartbeat CPU  0 instructions:  482000000 cycles: 1398993950 heartbeat IPC: 0.37892 cumulative IPC: 0.29569 (Simulation time: 0 hr 19 min 54 sec) 
Heartbeat CPU  0 instructions:  483000000 cycles: 1401559465 heartbeat IPC: 0.38979 cumulative IPC: 0.29587 (Simulation time: 0 hr 19 min 57 sec) 
Heartbeat CPU  0 instructions:  484000000 cycles: 1404261927 heartbeat IPC: 0.37003 cumulative IPC: 0.29603 (Simulation time: 0 hr 19 min 59 sec) 
Heartbeat CPU  0 instructions:  485000000 cycles: 1406927908 heartbeat IPC: 0.37510 cumulative IPC: 0.29619 (Simulation time: 0 hr 20 min 1 sec) 
Heartbeat CPU  0 instructions:  486000000 cycles: 1409551760 heartbeat IPC: 0.38112 cumulative IPC: 0.29636 (Simulation time: 0 hr 20 min 4 sec) 
Heartbeat CPU  0 instructions:  487000003 cycles: 1412366189 heartbeat IPC: 0.35531 cumulative IPC: 0.29649 (Simulation time: 0 hr 20 min 6 sec) 
Heartbeat CPU  0 instructions:  488000000 cycles: 1415182677 heartbeat IPC: 0.35505 cumulative IPC: 0.29662 (Simulation time: 0 hr 20 min 9 sec) 
Heartbeat CPU  0 instructions:  489000000 cycles: 1417906518 heartbeat IPC: 0.36713 cumulative IPC: 0.29676 (Simulation time: 0 hr 20 min 11 sec) 
Heartbeat CPU  0 instructions:  490000003 cycles: 1420673904 heartbeat IPC: 0.36135 cumulative IPC: 0.29690 (Simulation time: 0 hr 20 min 14 sec) 
Heartbeat CPU  0 instructions:  491000001 cycles: 1423400413 heartbeat IPC: 0.36677 cumulative IPC: 0.29704 (Simulation time: 0 hr 20 min 16 sec) 
Heartbeat CPU  0 instructions:  492000000 cycles: 1426185284 heartbeat IPC: 0.35908 cumulative IPC: 0.29717 (Simulation time: 0 hr 20 min 19 sec) 
Heartbeat CPU  0 instructions:  493000000 cycles: 1428877237 heartbeat IPC: 0.37148 cumulative IPC: 0.29733 (Simulation time: 0 hr 20 min 21 sec) 
Heartbeat CPU  0 instructions:  494000000 cycles: 1431518911 heartbeat IPC: 0.37855 cumulative IPC: 0.29749 (Simulation time: 0 hr 20 min 24 sec) 
Heartbeat CPU  0 instructions:  495000001 cycles: 1434369443 heartbeat IPC: 0.35081 cumulative IPC: 0.29760 (Simulation time: 0 hr 20 min 26 sec) 
Heartbeat CPU  0 instructions:  496000000 cycles: 1437134840 heartbeat IPC: 0.36161 cumulative IPC: 0.29773 (Simulation time: 0 hr 20 min 28 sec) 
Heartbeat CPU  0 instructions:  497000001 cycles: 1439919305 heartbeat IPC: 0.35914 cumulative IPC: 0.29786 (Simulation time: 0 hr 20 min 31 sec) 
Heartbeat CPU  0 instructions:  498000000 cycles: 1442697151 heartbeat IPC: 0.35999 cumulative IPC: 0.29799 (Simulation time: 0 hr 20 min 33 sec) 
Heartbeat CPU  0 instructions:  499000002 cycles: 1445444904 heartbeat IPC: 0.36393 cumulative IPC: 0.29813 (Simulation time: 0 hr 20 min 36 sec) 
Heartbeat CPU  0 instructions:  500000000 cycles: 1448134617 heartbeat IPC: 0.37179 cumulative IPC: 0.29828 (Simulation time: 0 hr 20 min 38 sec) 
Heartbeat CPU  0 instructions:  501000000 cycles: 1450863581 heartbeat IPC: 0.36644 cumulative IPC: 0.29841 (Simulation time: 0 hr 20 min 41 sec) 
Heartbeat CPU  0 instructions:  502000000 cycles: 1453655117 heartbeat IPC: 0.35823 cumulative IPC: 0.29854 (Simulation time: 0 hr 20 min 43 sec) 
Heartbeat CPU  0 instructions:  503000002 cycles: 1456481398 heartbeat IPC: 0.35382 cumulative IPC: 0.29865 (Simulation time: 0 hr 20 min 46 sec) 
Heartbeat CPU  0 instructions:  504000000 cycles: 1459323746 heartbeat IPC: 0.35182 cumulative IPC: 0.29877 (Simulation time: 0 hr 20 min 48 sec) 
Heartbeat CPU  0 instructions:  505000001 cycles: 1461946028 heartbeat IPC: 0.38135 cumulative IPC: 0.29893 (Simulation time: 0 hr 20 min 50 sec) 
Heartbeat CPU  0 instructions:  506000001 cycles: 1464778205 heartbeat IPC: 0.35309 cumulative IPC: 0.29904 (Simulation time: 0 hr 20 min 53 sec) 
Heartbeat CPU  0 instructions:  507000001 cycles: 1467618621 heartbeat IPC: 0.35206 cumulative IPC: 0.29915 (Simulation time: 0 hr 20 min 55 sec) 
Heartbeat CPU  0 instructions:  508000000 cycles: 1470370869 heartbeat IPC: 0.36334 cumulative IPC: 0.29928 (Simulation time: 0 hr 20 min 58 sec) 
Heartbeat CPU  0 instructions:  509000001 cycles: 1472949182 heartbeat IPC: 0.38785 cumulative IPC: 0.29945 (Simulation time: 0 hr 21 min 0 sec) 
Heartbeat CPU  0 instructions:  510000003 cycles: 1475693631 heartbeat IPC: 0.36437 cumulative IPC: 0.29958 (Simulation time: 0 hr 21 min 2 sec) 
Heartbeat CPU  0 instructions:  511000001 cycles: 1478135834 heartbeat IPC: 0.40947 cumulative IPC: 0.29977 (Simulation time: 0 hr 21 min 5 sec) 
Heartbeat CPU  0 instructions:  512000000 cycles: 1480894198 heartbeat IPC: 0.36253 cumulative IPC: 0.29990 (Simulation time: 0 hr 21 min 7 sec) 
Heartbeat CPU  0 instructions:  513000001 cycles: 1483607138 heartbeat IPC: 0.36860 cumulative IPC: 0.30003 (Simulation time: 0 hr 21 min 9 sec) 
Heartbeat CPU  0 instructions:  514000002 cycles: 1486305593 heartbeat IPC: 0.37058 cumulative IPC: 0.30017 (Simulation time: 0 hr 21 min 12 sec) 
Heartbeat CPU  0 instructions:  515000001 cycles: 1488844568 heartbeat IPC: 0.39386 cumulative IPC: 0.30034 (Simulation time: 0 hr 21 min 14 sec) 
Heartbeat CPU  0 instructions:  516000000 cycles: 1491350788 heartbeat IPC: 0.39901 cumulative IPC: 0.30052 (Simulation time: 0 hr 21 min 16 sec) 
Heartbeat CPU  0 instructions:  517000002 cycles: 1494179218 heartbeat IPC: 0.35355 cumulative IPC: 0.30063 (Simulation time: 0 hr 21 min 19 sec) 
Heartbeat CPU  0 instructions:  518000001 cycles: 1496999225 heartbeat IPC: 0.35461 cumulative IPC: 0.30074 (Simulation time: 0 hr 21 min 21 sec) 
Heartbeat CPU  0 instructions:  519000001 cycles: 1499711916 heartbeat IPC: 0.36864 cumulative IPC: 0.30087 (Simulation time: 0 hr 21 min 24 sec) 
Heartbeat CPU  0 instructions:  520000000 cycles: 1502523457 heartbeat IPC: 0.35568 cumulative IPC: 0.30098 (Simulation time: 0 hr 21 min 26 sec) 
Heartbeat CPU  0 instructions:  521000000 cycles: 1505182917 heartbeat IPC: 0.37602 cumulative IPC: 0.30112 (Simulation time: 0 hr 21 min 28 sec) 
Heartbeat CPU  0 instructions:  522000000 cycles: 1507837237 heartbeat IPC: 0.37674 cumulative IPC: 0.30127 (Simulation time: 0 hr 21 min 31 sec) 
Heartbeat CPU  0 instructions:  523000002 cycles: 1510321533 heartbeat IPC: 0.40253 cumulative IPC: 0.30145 (Simulation time: 0 hr 21 min 33 sec) 
Heartbeat CPU  0 instructions:  524000000 cycles: 1513108070 heartbeat IPC: 0.35887 cumulative IPC: 0.30156 (Simulation time: 0 hr 21 min 35 sec) 
Heartbeat CPU  0 instructions:  525000000 cycles: 1515707259 heartbeat IPC: 0.38474 cumulative IPC: 0.30171 (Simulation time: 0 hr 21 min 37 sec) 
Heartbeat CPU  0 instructions:  526000000 cycles: 1518735074 heartbeat IPC: 0.33027 cumulative IPC: 0.30178 (Simulation time: 0 hr 21 min 40 sec) 
Heartbeat CPU  0 instructions:  527000000 cycles: 1521199950 heartbeat IPC: 0.40570 cumulative IPC: 0.30196 (Simulation time: 0 hr 21 min 42 sec) 
Heartbeat CPU  0 instructions:  528000000 cycles: 1523840582 heartbeat IPC: 0.37870 cumulative IPC: 0.30210 (Simulation time: 0 hr 21 min 44 sec) 
Heartbeat CPU  0 instructions:  529000001 cycles: 1526388040 heartbeat IPC: 0.39255 cumulative IPC: 0.30226 (Simulation time: 0 hr 21 min 46 sec) 
Heartbeat CPU  0 instructions:  530000000 cycles: 1528804948 heartbeat IPC: 0.41375 cumulative IPC: 0.30245 (Simulation time: 0 hr 21 min 48 sec) 
Heartbeat CPU  0 instructions:  531000001 cycles: 1531672191 heartbeat IPC: 0.34877 cumulative IPC: 0.30255 (Simulation time: 0 hr 21 min 51 sec) 
Heartbeat CPU  0 instructions:  532000000 cycles: 1533865522 heartbeat IPC: 0.45593 cumulative IPC: 0.30278 (Simulation time: 0 hr 21 min 53 sec) 
Heartbeat CPU  0 instructions:  533000000 cycles: 1536681261 heartbeat IPC: 0.35515 cumulative IPC: 0.30288 (Simulation time: 0 hr 21 min 55 sec) 
Heartbeat CPU  0 instructions:  534000003 cycles: 1539072328 heartbeat IPC: 0.41822 cumulative IPC: 0.30308 (Simulation time: 0 hr 21 min 57 sec) 
Heartbeat CPU  0 instructions:  535000002 cycles: 1541836738 heartbeat IPC: 0.36174 cumulative IPC: 0.30319 (Simulation time: 0 hr 21 min 59 sec) 
Heartbeat CPU  0 instructions:  536000000 cycles: 1544253323 heartbeat IPC: 0.41381 cumulative IPC: 0.30338 (Simulation time: 0 hr 22 min 1 sec) 
Heartbeat CPU  0 instructions:  537000002 cycles: 1546785581 heartbeat IPC: 0.39491 cumulative IPC: 0.30354 (Simulation time: 0 hr 22 min 4 sec) 
Heartbeat CPU  0 instructions:  538000000 cycles: 1549299113 heartbeat IPC: 0.39785 cumulative IPC: 0.30370 (Simulation time: 0 hr 22 min 6 sec) 
Heartbeat CPU  0 instructions:  539000001 cycles: 1551863866 heartbeat IPC: 0.38990 cumulative IPC: 0.30385 (Simulation time: 0 hr 22 min 8 sec) 
Heartbeat CPU  0 instructions:  540000000 cycles: 1554420335 heartbeat IPC: 0.39116 cumulative IPC: 0.30401 (Simulation time: 0 hr 22 min 10 sec) 
Heartbeat CPU  0 instructions:  541000001 cycles: 1557199189 heartbeat IPC: 0.35986 cumulative IPC: 0.30412 (Simulation time: 0 hr 22 min 12 sec) 
Heartbeat CPU  0 instructions:  542000001 cycles: 1559862853 heartbeat IPC: 0.37542 cumulative IPC: 0.30425 (Simulation time: 0 hr 22 min 15 sec) 
Heartbeat CPU  0 instructions:  543000002 cycles: 1562657003 heartbeat IPC: 0.35789 cumulative IPC: 0.30435 (Simulation time: 0 hr 22 min 17 sec) 
Heartbeat CPU  0 instructions:  544000000 cycles: 1565319896 heartbeat IPC: 0.37553 cumulative IPC: 0.30448 (Simulation time: 0 hr 22 min 19 sec) 
Heartbeat CPU  0 instructions:  545000001 cycles: 1568006699 heartbeat IPC: 0.37219 cumulative IPC: 0.30460 (Simulation time: 0 hr 22 min 21 sec) 
Heartbeat CPU  0 instructions:  546000001 cycles: 1570752665 heartbeat IPC: 0.36417 cumulative IPC: 0.30472 (Simulation time: 0 hr 22 min 24 sec) 
Heartbeat CPU  0 instructions:  547000000 cycles: 1573437426 heartbeat IPC: 0.37247 cumulative IPC: 0.30484 (Simulation time: 0 hr 22 min 26 sec) 
Heartbeat CPU  0 instructions:  548000000 cycles: 1576016964 heartbeat IPC: 0.38767 cumulative IPC: 0.30498 (Simulation time: 0 hr 22 min 28 sec) 
Heartbeat CPU  0 instructions:  549000000 cycles: 1578564883 heartbeat IPC: 0.39248 cumulative IPC: 0.30514 (Simulation time: 0 hr 22 min 30 sec) 
Heartbeat CPU  0 instructions:  550000001 cycles: 1581465487 heartbeat IPC: 0.34476 cumulative IPC: 0.30521 (Simulation time: 0 hr 22 min 32 sec) 
Heartbeat CPU  0 instructions:  551000003 cycles: 1584145566 heartbeat IPC: 0.37312 cumulative IPC: 0.30534 (Simulation time: 0 hr 22 min 34 sec) 
Heartbeat CPU  0 instructions:  552000000 cycles: 1586750337 heartbeat IPC: 0.38391 cumulative IPC: 0.30548 (Simulation time: 0 hr 22 min 37 sec) 
Heartbeat CPU  0 instructions:  553000002 cycles: 1589386158 heartbeat IPC: 0.37939 cumulative IPC: 0.30561 (Simulation time: 0 hr 22 min 39 sec) 
Heartbeat CPU  0 instructions:  554000000 cycles: 1591879595 heartbeat IPC: 0.40105 cumulative IPC: 0.30577 (Simulation time: 0 hr 22 min 41 sec) 
Heartbeat CPU  0 instructions:  555000003 cycles: 1594657322 heartbeat IPC: 0.36001 cumulative IPC: 0.30587 (Simulation time: 0 hr 22 min 43 sec) 
Heartbeat CPU  0 instructions:  556000000 cycles: 1597330530 heartbeat IPC: 0.37408 cumulative IPC: 0.30599 (Simulation time: 0 hr 22 min 45 sec) 
Heartbeat CPU  0 instructions:  557000000 cycles: 1599981797 heartbeat IPC: 0.37718 cumulative IPC: 0.30612 (Simulation time: 0 hr 22 min 47 sec) 
Heartbeat CPU  0 instructions:  558000001 cycles: 1602772055 heartbeat IPC: 0.35839 cumulative IPC: 0.30622 (Simulation time: 0 hr 22 min 50 sec) 
Heartbeat CPU  0 instructions:  559000001 cycles: 1605686349 heartbeat IPC: 0.34314 cumulative IPC: 0.30629 (Simulation time: 0 hr 22 min 52 sec) 
Heartbeat CPU  0 instructions:  560000000 cycles: 1608519519 heartbeat IPC: 0.35296 cumulative IPC: 0.30638 (Simulation time: 0 hr 22 min 54 sec) 
Heartbeat CPU  0 instructions:  561000002 cycles: 1611278666 heartbeat IPC: 0.36243 cumulative IPC: 0.30648 (Simulation time: 0 hr 22 min 56 sec) 
Heartbeat CPU  0 instructions:  562000002 cycles: 1613950215 heartbeat IPC: 0.37431 cumulative IPC: 0.30660 (Simulation time: 0 hr 22 min 59 sec) 
Heartbeat CPU  0 instructions:  563000000 cycles: 1616752052 heartbeat IPC: 0.35691 cumulative IPC: 0.30669 (Simulation time: 0 hr 23 min 1 sec) 
Heartbeat CPU  0 instructions:  564000000 cycles: 1619490750 heartbeat IPC: 0.36514 cumulative IPC: 0.30680 (Simulation time: 0 hr 23 min 3 sec) 
Heartbeat CPU  0 instructions:  565000000 cycles: 1622283959 heartbeat IPC: 0.35801 cumulative IPC: 0.30689 (Simulation time: 0 hr 23 min 5 sec) 
Heartbeat CPU  0 instructions:  566000001 cycles: 1624858983 heartbeat IPC: 0.38835 cumulative IPC: 0.30703 (Simulation time: 0 hr 23 min 7 sec) 
Heartbeat CPU  0 instructions:  567000000 cycles: 1627659743 heartbeat IPC: 0.35705 cumulative IPC: 0.30712 (Simulation time: 0 hr 23 min 10 sec) 
Heartbeat CPU  0 instructions:  568000000 cycles: 1630329932 heartbeat IPC: 0.37451 cumulative IPC: 0.30724 (Simulation time: 0 hr 23 min 12 sec) 
Heartbeat CPU  0 instructions:  569000001 cycles: 1633164743 heartbeat IPC: 0.35276 cumulative IPC: 0.30732 (Simulation time: 0 hr 23 min 14 sec) 
Heartbeat CPU  0 instructions:  570000002 cycles: 1635673536 heartbeat IPC: 0.39860 cumulative IPC: 0.30747 (Simulation time: 0 hr 23 min 16 sec) 
Heartbeat CPU  0 instructions:  571000000 cycles: 1638386600 heartbeat IPC: 0.36859 cumulative IPC: 0.30758 (Simulation time: 0 hr 23 min 19 sec) 
Heartbeat CPU  0 instructions:  572000000 cycles: 1641024355 heartbeat IPC: 0.37911 cumulative IPC: 0.30771 (Simulation time: 0 hr 23 min 21 sec) 
Heartbeat CPU  0 instructions:  573000001 cycles: 1643467059 heartbeat IPC: 0.40938 cumulative IPC: 0.30787 (Simulation time: 0 hr 23 min 23 sec) 
Heartbeat CPU  0 instructions:  574000001 cycles: 1646176763 heartbeat IPC: 0.36904 cumulative IPC: 0.30798 (Simulation time: 0 hr 23 min 25 sec) 
Heartbeat CPU  0 instructions:  575000002 cycles: 1648767025 heartbeat IPC: 0.38606 cumulative IPC: 0.30811 (Simulation time: 0 hr 23 min 27 sec) 
Heartbeat CPU  0 instructions:  576000000 cycles: 1651422785 heartbeat IPC: 0.37654 cumulative IPC: 0.30822 (Simulation time: 0 hr 23 min 29 sec) 
Heartbeat CPU  0 instructions:  577000000 cycles: 1654015008 heartbeat IPC: 0.38577 cumulative IPC: 0.30835 (Simulation time: 0 hr 23 min 31 sec) 
Heartbeat CPU  0 instructions:  578000002 cycles: 1656312423 heartbeat IPC: 0.43527 cumulative IPC: 0.30854 (Simulation time: 0 hr 23 min 33 sec) 
Heartbeat CPU  0 instructions:  579000000 cycles: 1659117269 heartbeat IPC: 0.35653 cumulative IPC: 0.30863 (Simulation time: 0 hr 23 min 35 sec) 
Heartbeat CPU  0 instructions:  580000000 cycles: 1661931681 heartbeat IPC: 0.35531 cumulative IPC: 0.30871 (Simulation time: 0 hr 23 min 38 sec) 
Heartbeat CPU  0 instructions:  581000001 cycles: 1664665221 heartbeat IPC: 0.36583 cumulative IPC: 0.30881 (Simulation time: 0 hr 23 min 40 sec) 
Heartbeat CPU  0 instructions:  582000001 cycles: 1667571893 heartbeat IPC: 0.34404 cumulative IPC: 0.30888 (Simulation time: 0 hr 23 min 42 sec) 
Heartbeat CPU  0 instructions:  583000000 cycles: 1670430897 heartbeat IPC: 0.34977 cumulative IPC: 0.30895 (Simulation time: 0 hr 23 min 44 sec) 
Heartbeat CPU  0 instructions:  584000000 cycles: 1673090647 heartbeat IPC: 0.37598 cumulative IPC: 0.30907 (Simulation time: 0 hr 23 min 47 sec) 
Heartbeat CPU  0 instructions:  585000003 cycles: 1675724048 heartbeat IPC: 0.37974 cumulative IPC: 0.30919 (Simulation time: 0 hr 23 min 49 sec) 
Heartbeat CPU  0 instructions:  586000000 cycles: 1678615670 heartbeat IPC: 0.34583 cumulative IPC: 0.30925 (Simulation time: 0 hr 23 min 51 sec) 
Heartbeat CPU  0 instructions:  587000000 cycles: 1681303440 heartbeat IPC: 0.37206 cumulative IPC: 0.30936 (Simulation time: 0 hr 23 min 53 sec) 
Heartbeat CPU  0 instructions:  588000000 cycles: 1684086013 heartbeat IPC: 0.35938 cumulative IPC: 0.30945 (Simulation time: 0 hr 23 min 55 sec) 
Heartbeat CPU  0 instructions:  589000000 cycles: 1686875951 heartbeat IPC: 0.35843 cumulative IPC: 0.30954 (Simulation time: 0 hr 23 min 58 sec) 
Heartbeat CPU  0 instructions:  590000001 cycles: 1689325259 heartbeat IPC: 0.40828 cumulative IPC: 0.30969 (Simulation time: 0 hr 24 min 0 sec) 
Heartbeat CPU  0 instructions:  591000003 cycles: 1691973198 heartbeat IPC: 0.37765 cumulative IPC: 0.30980 (Simulation time: 0 hr 24 min 2 sec) 
Heartbeat CPU  0 instructions:  592000000 cycles: 1694765264 heartbeat IPC: 0.35816 cumulative IPC: 0.30989 (Simulation time: 0 hr 24 min 4 sec) 
Heartbeat CPU  0 instructions:  593000000 cycles: 1697487991 heartbeat IPC: 0.36728 cumulative IPC: 0.30999 (Simulation time: 0 hr 24 min 6 sec) 
Heartbeat CPU  0 instructions:  594000000 cycles: 1699767023 heartbeat IPC: 0.43878 cumulative IPC: 0.31017 (Simulation time: 0 hr 24 min 8 sec) 
Heartbeat CPU  0 instructions:  595000001 cycles: 1702319354 heartbeat IPC: 0.39180 cumulative IPC: 0.31030 (Simulation time: 0 hr 24 min 10 sec) 
Heartbeat CPU  0 instructions:  596000000 cycles: 1705116521 heartbeat IPC: 0.35750 cumulative IPC: 0.31038 (Simulation time: 0 hr 24 min 13 sec) 
Heartbeat CPU  0 instructions:  597000000 cycles: 1708003012 heartbeat IPC: 0.34644 cumulative IPC: 0.31045 (Simulation time: 0 hr 24 min 15 sec) 
Heartbeat CPU  0 instructions:  598000000 cycles: 1710587610 heartbeat IPC: 0.38691 cumulative IPC: 0.31057 (Simulation time: 0 hr 24 min 17 sec) 
Heartbeat CPU  0 instructions:  599000000 cycles: 1713481074 heartbeat IPC: 0.34561 cumulative IPC: 0.31063 (Simulation time: 0 hr 24 min 19 sec) 
Heartbeat CPU  0 instructions:  600000000 cycles: 1715917009 heartbeat IPC: 0.41052 cumulative IPC: 0.31079 (Simulation time: 0 hr 24 min 21 sec) 
Finished CPU 0 instructions: 500000000 cycles: 1608824807 cumulative IPC: 0.31079 (Simulation time: 0 hr 24 min 21 sec) 

ChampSim completed all CPUs

[ROI Statistics]
Core_0_instructions 500000000
Core_0_cycles 1608824807
Core_0_IPC 0.31079

Core_0_branch_prediction_accuracy 85.18932
Core_0_branch_MPKI 24.43069
Core_0_average_ROB_occupancy_at_mispredict 38.25067

Core_0_L1D_total_access 156109447
Core_0_L1D_total_hit 153793824
Core_0_L1D_total_miss 2315623
Core_0_L1D_loads 90207798
Core_0_L1D_load_hit 89378277
Core_0_L1D_load_miss 829521
Core_0_L1D_RFOs 65901649
Core_0_L1D_RFO_hit 64415547
Core_0_L1D_RFO_miss 1486102
Core_0_L1D_prefetches 0
Core_0_L1D_prefetch_hit 0
Core_0_L1D_prefetch_miss 0
Core_0_L1D_writebacks 0
Core_0_L1D_writeback_hit 0
Core_0_L1D_writeback_miss 0
Core_0_L1D_prefetch_requested 0
Core_0_L1D_prefetch_dropped 0
Core_0_L1D_prefetch_issued 0
Core_0_L1D_prefetch_filled 0
Core_0_L1D_prefetch_useful 0
Core_0_L1D_prefetch_useless 0
Core_0_L1D_prefetch_late 0
Core_0_L1D_average_miss_latency 2225.20963

Core_0_L1D_rq_access 125889846
Core_0_L1D_rq_forward 0
Core_0_L1D_rq_merged 35590097
Core_0_L1D_rq_to_cache 90299178
Core_0_L1D_rq_full 0

Core_0_L1D_wq_access 70505122
Core_0_L1D_wq_forward 571
Core_0_L1D_wq_merged 423563
Core_0_L1D_wq_to_cache 70081559
Core_0_L1D_wq_full 307467979

Core_0_L1D_pq_access 0
Core_0_L1D_pq_forward 0
Core_0_L1D_pq_merged 0
Core_0_L1D_pq_to_cache 0
Core_0_L1D_pq_full 0

Core_0_L1D_acc_epochs 1673447
Core_0_L1D_acc_level_0 1673447
Core_0_L1D_acc_level_1 0
Core_0_L1D_acc_level_2 0
Core_0_L1D_acc_level_3 0
Core_0_L1D_acc_level_4 0
Core_0_L1D_acc_level_5 0
Core_0_L1D_acc_level_6 0
Core_0_L1D_acc_level_7 0
Core_0_L1D_acc_level_8 0
Core_0_L1D_acc_level_9 0

Core_0_L1I_total_access 99477008
Core_0_L1I_total_hit 97532072
Core_0_L1I_total_miss 1944936
Core_0_L1I_loads 99477008
Core_0_L1I_load_hit 97532072
Core_0_L1I_load_miss 1944936
Core_0_L1I_RFOs 0
Core_0_L1I_RFO_hit 0
Core_0_L1I_RFO_miss 0
Core_0_L1I_prefetches 0
Core_0_L1I_prefetch_hit 0
Core_0_L1I_prefetch_miss 0
Core_0_L1I_writebacks 0
Core_0_L1I_writeback_hit 0
Core_0_L1I_writeback_miss 0
Core_0_L1I_prefetch_requested 0
Core_0_L1I_prefetch_dropped 0
Core_0_L1I_prefetch_issued 0
Core_0_L1I_prefetch_filled 0
Core_0_L1I_prefetch_useful 0
Core_0_L1I_prefetch_useless 0
Core_0_L1I_prefetch_late 0
Core_0_L1I_average_miss_latency 13.53447

Core_0_L1I_rq_access 499999934
Core_0_L1I_rq_forward 0
Core_0_L1I_rq_merged 399807247
Core_0_L1I_rq_to_cache 100192687
Core_0_L1I_rq_full 0

Core_0_L1I_wq_access 0
Core_0_L1I_wq_forward 0
Core_0_L1I_wq_merged 0
Core_0_L1I_wq_to_cache 0
Core_0_L1I_wq_full 0

Core_0_L1I_pq_access 0
Core_0_L1I_pq_forward 0
Core_0_L1I_pq_merged 0
Core_0_L1I_pq_to_cache 0
Core_0_L1I_pq_full 0

Core_0_L1I_acc_epochs 1673447
Core_0_L1I_acc_level_0 1673447
Core_0_L1I_acc_level_1 0
Core_0_L1I_acc_level_2 0
Core_0_L1I_acc_level_3 0
Core_0_L1I_acc_level_4 0
Core_0_L1I_acc_level_5 0
Core_0_L1I_acc_level_6 0
Core_0_L1I_acc_level_7 0
Core_0_L1I_acc_level_8 0
Core_0_L1I_acc_level_9 0

Core_0_L2C_total_access 6707170
Core_0_L2C_total_hit 5383624
Core_0_L2C_total_miss 1323546
Core_0_L2C_loads 2774435
Core_0_L2C_load_hit 2348416
Core_0_L2C_load_miss 426019
Core_0_L2C_RFOs 1486057
Core_0_L2C_RFO_hit 610968
Core_0_L2C_RFO_miss 875089
Core_0_L2C_prefetches 692494
Core_0_L2C_prefetch_hit 671919
Core_0_L2C_prefetch_miss 20575
Core_0_L2C_writebacks 1754184
Core_0_L2C_writeback_hit 1752321
Core_0_L2C_writeback_miss 1863
Core_0_L2C_prefetch_requested 1557170
Core_0_L2C_prefetch_dropped 0
Core_0_L2C_prefetch_issued 1557170
Core_0_L2C_prefetch_filled 21858
Core_0_L2C_prefetch_useful 21639
Core_0_L2C_prefetch_useless 219
Core_0_L2C_prefetch_late 7003
Core_0_L2C_average_miss_latency 3873.13043

Core_0_L2C_rq_access 4260559
Core_0_L2C_rq_forward 0
Core_0_L2C_rq_merged 0
Core_0_L2C_rq_to_cache 4260492
Core_0_L2C_rq_full 0

Core_0_L2C_wq_access 1754184
Core_0_L2C_wq_forward 67
Core_0_L2C_wq_merged 0
Core_0_L2C_wq_to_cache 1754184
Core_0_L2C_wq_full 0

Core_0_L2C_pq_access 1557170
Core_0_L2C_pq_forward 0
Core_0_L2C_pq_merged 241937
Core_0_L2C_pq_to_cache 1315233
Core_0_L2C_pq_full 0

Core_0_L2C_acc_epochs 1673447
Core_0_L2C_acc_level_0 1666638
Core_0_L2C_acc_level_1 788
Core_0_L2C_acc_level_2 710
Core_0_L2C_acc_level_3 316
Core_0_L2C_acc_level_4 291
Core_0_L2C_acc_level_5 731
Core_0_L2C_acc_level_6 251
Core_0_L2C_acc_level_7 416
Core_0_L2C_acc_level_8 446
Core_0_L2C_acc_level_9 2860

Core_0_LLC_total_access 2730263
Core_0_LLC_total_hit 1164438
Core_0_LLC_total_miss 1565825
Core_0_LLC_loads 419016
Core_0_LLC_load_hit 324413
Core_0_LLC_load_miss 94603
Core_0_LLC_RFOs 875087
Core_0_LLC_RFO_hit 121636
Core_0_LLC_RFO_miss 753451
Core_0_LLC_prefetches 414257
Core_0_LLC_prefetch_hit 364393
Core_0_LLC_prefetch_miss 49864
Core_0_LLC_writebacks 1021903
Core_0_LLC_writeback_hit 353996
Core_0_LLC_writeback_miss 667907
Core_0_LLC_prefetch_requested 0
Core_0_LLC_prefetch_dropped 0
Core_0_LLC_prefetch_issued 0
Core_0_LLC_prefetch_filled 63676
Core_0_LLC_prefetch_useful 38544
Core_0_LLC_prefetch_useless 23041
Core_0_LLC_prefetch_late 4186
Core_0_LLC_average_miss_latency 3267.05273

Core_0_LLC_rq_access 1294105
Core_0_LLC_rq_forward 0
Core_0_LLC_rq_merged 0
Core_0_LLC_rq_to_cache 1294103
Core_0_LLC_rq_full 0

Core_0_LLC_wq_access 1021903
Core_0_LLC_wq_forward 2
Core_0_LLC_wq_merged 0
Core_0_LLC_wq_to_cache 1021903
Core_0_LLC_wq_full 0

Core_0_LLC_pq_access 483293
Core_0_LLC_pq_forward 0
Core_0_LLC_pq_merged 6355
Core_0_LLC_pq_to_cache 476938
Core_0_LLC_pq_full 0

Core_0_LLC_acc_epochs 1675701
Core_0_LLC_acc_level_0 1623416
Core_0_LLC_acc_level_1 18303
Core_0_LLC_acc_level_2 17288
Core_0_LLC_acc_level_3 694
Core_0_LLC_acc_level_4 113
Core_0_LLC_acc_level_5 13915
Core_0_LLC_acc_level_6 226
Core_0_LLC_acc_level_7 218
Core_0_LLC_acc_level_8 80
Core_0_LLC_acc_level_9 1448

Core_0_major_page_fault 0
Core_0_minor_page_fault 6639

spp.pref.total 1557170
spp.pref.at_L2 66095
spp.pref.at_LLC 1491075

spp.depth.max 11
spp.depth.min 0
spp.depth.avg 0

spp.breadth.max 2
spp.breadth.min 0
spp.breadth.avg 0

delta_1 1668153
delta_-1 19765
delta_7 13275
delta_2 11272
delta_8 5966
delta_4 5376
delta_-2 4611
delta_3 2531
delta_6 718
delta_-6 716
delta_-7 282
delta_9 250
delta_-5 88
delta_25 85
delta_-9 81
delta_13 49
delta_-25 48
delta_-24 46
delta_20 41
delta_-3 39
delta_5 16
delta_26 13
delta_-11 9
delta_-26 9
delta_-4 9
delta_-14 9
delta_-38 8
delta_-13 7
delta_-23 6
delta_-50 4
delta_14 4
delta_11 3
delta_21 3
delta_-48 1

depth_1_delta_1 963274
depth_1_delta_7 13006
depth_1_delta_-1 12249
depth_1_delta_2 9778
depth_1_delta_8 5875
depth_1_delta_4 4389
depth_1_delta_-2 4133
depth_1_delta_3 2486
depth_1_delta_-6 716
depth_1_delta_6 457
depth_1_delta_-7 253
depth_1_delta_9 201
depth_1_delta_25 74
depth_1_delta_-5 55
depth_1_delta_13 49
depth_1_delta_-25 48
depth_1_delta_20 41
depth_1_delta_-24 38
depth_1_delta_-9 36
depth_1_delta_-3 28
depth_1_delta_5 16
depth_1_delta_26 12
depth_1_delta_-11 9
depth_1_delta_-26 9
depth_1_delta_-4 9
depth_1_delta_-14 9
depth_1_delta_-38 8
depth_1_delta_-13 7
depth_1_delta_-23 6
depth_1_delta_-50 4
depth_1_delta_14 4
depth_1_delta_11 3
depth_1_delta_21 3
depth_1_delta_-48 1
depth_2_delta_1 135256
depth_2_delta_-1 3952
depth_2_delta_2 1395
depth_2_delta_4 949
depth_2_delta_-2 423
depth_2_delta_7 229
depth_2_delta_6 134
depth_2_delta_8 91
depth_2_delta_9 47
depth_2_delta_3 45
depth_2_delta_-5 23
depth_2_delta_-9 18
depth_2_delta_-7 16
depth_2_delta_25 11
depth_2_delta_-3 9
depth_2_delta_-24 8
depth_2_delta_26 1
depth_3_delta_1 111463
depth_3_delta_-1 1836
depth_3_delta_2 85
depth_3_delta_6 81
depth_3_delta_-2 50
depth_3_delta_4 37
depth_3_delta_7 23
depth_3_delta_-9 15
depth_3_delta_-7 9
depth_3_delta_-5 8
depth_3_delta_-3 2
depth_3_delta_9 2
depth_4_delta_1 104479
depth_4_delta_-1 818
depth_4_delta_6 34
depth_4_delta_2 13
depth_4_delta_7 12
depth_4_delta_-9 10
depth_4_delta_-2 5
depth_4_delta_-7 4
depth_4_delta_-5 2
depth_4_delta_4 1
depth_5_delta_1 100581
depth_5_delta_-1 438
depth_5_delta_6 11
depth_5_delta_7 5
depth_5_delta_-9 2
depth_5_delta_2 1
depth_6_delta_1 84934
depth_6_delta_-1 227
depth_6_delta_6 1
depth_7_delta_1 70351
depth_7_delta_-1 133
depth_8_delta_1 55832
depth_8_delta_-1 73
depth_9_delta_1 32423
depth_9_delta_-1 34
depth_10_delta_1 9545
depth_10_delta_-1 5
depth_11_delta_1 15

Channel_0_RQ_row_buffer_hit 149810
Channel_0_RQ_row_buffer_miss 748106
Channel_0_WQ_row_buffer_hit 91699
Channel_0_WQ_row_buffer_miss 761485
Channel_0_WQ_full 0
Channel_0_dbus_congested 1741949

avg_congested_cycle 190

DRAM_bw_pochs 6702801
DRAM_bw_level_0 5856690
DRAM_bw_level_1 0
DRAM_bw_level_2 0
DRAM_bw_level_3 846111
