*************************************************
   ChampSim Multicore Out-of-Order Simulator
   Last compiled: Dec 11 2024 17:59:53
*************************************************
parsing config file: /home/functionmain/桌面/Pythia/config/spp_dev2.ini

trace_0 /home/functionmain/桌面/Pythia/traces/445.gobmk-36B.champsimtrace.xz
adding L2C_PREFETCHER: SPP_dev2
Initialize SIGNATURE TABLE
ST_SET: 1
ST_WAY: 256
ST_TAG_BIT: 16
ST_TAG_MASK: ffff

Initialize PATTERN TABLE
PT_SET: 512
PT_WAY: 4
SIG_DELTA_BIT: 7
C_SIG_BIT: 4
C_DELTA_BIT: 4

Initialize PREFETCH FILTER
FILTER_SET: 1024
fill_threshold: 90
pf_threshold: 40

Initialize SHIP state
warmup_instructions 100000000
simulation_instructions 500000000
champsim_seed 171
measure_ipc 0
measure_ipc_epoch 1000
measure_dram_bw 1
measure_dram_bw_epoch 256
measure_cache_acc 1
measure_cache_acc_epoch 1024
l1d_perfect 0
l2c_perfect 0
llc_perfect 0
l1d_semi_perfect 0
l2c_semi_perfect 0
llc_semi_perfect 0
semi_perfect_cache_page_buffer_size 64

num_cpus 1
cpu_freq 4000
dram_io_freq 1200
page_size 4096
block_size 64
max_read_per_cycle 8
max_fill_per_cycle 1
dram_channels 1
log2_dram_channels 0
dram_ranks 1
dram_banks 8
dram_rows 65536
dram_columns 128
dram_row_size 8
dram_size 4096
dram_pages 1048576

fetch_width 6
decode_width 6
exec_width 4
lq_width 2
sq_width 2
retire_width 4
scheduler_size 128
branch_mispredict_penalty 20
rob_size 256
lq_size 72
sq_size 56
num_instr_destinations_sparc 4
num_instr_destinations 2
num_instr_sources 4

itlb_set 16
itlb_way 8
itlb_rq_size 16
itlb_wq_size 16
itlb_pq_size 0
itlb_mshr_size 8
itlb_latency 1

dtlb_set 16
dtlb_way 4
dtlb_rq_size 16
dtlb_wq_size 16
dtlb_pq_size 0
dtlb_mshr_size 8
dtlb_latency 1

stlb_set 128
stlb_way 12
stlb_rq_size 32
stlb_wq_size 32
stlb_pq_size 0
stlb_mshr_size 16
stlb_latency 8

l1i_size 32
l1i_set 64
l1i_way 8
l1i_rq_size 64
l1i_wq_size 64
l1i_pq_size 8
l1i_mshr_size 8
l1i_latency 1

l1d_size 32
l1d_set 64
l1d_way 8
l1d_rq_size 64
l1d_wq_size 64
l1d_pq_size 8
l1d_mshr_size 16
l1d_latency 4

l2c_size 256
l2c_set 512
l2c_way 8
l2c_rq_size 32
l2c_wq_size 32
l2c_pq_size 32
l2c_mshr_size 32
l2c_latency 10

llc_size 2048
llc_set 2048
llc_way 16
llc_rq_size 32
llc_wq_size 32
llc_pq_size 32
llc_mshr_size 64
llc_latency 20

dram_channel_width 8
dram_wq_size 64
dram_rq_size 64
tRP 15
tRCD 15
tCAS 12.5
dram_dbus_turn_around_time 30
dram_write_high_wm 56
dram_write_low_wm 48
min_dram_writes_per_switch 16
dram_mtps 1200
dram_dbus_return_time 26


Heartbeat CPU  0 instructions:    1000000 cycles:    1143375 heartbeat IPC: 0.87460 cumulative IPC: 0.87460 (Simulation time: 0 hr 0 min 1 sec) 
Heartbeat CPU  0 instructions:    2000000 cycles:    2306859 heartbeat IPC: 0.85949 cumulative IPC: 0.86698 (Simulation time: 0 hr 0 min 2 sec) 
Heartbeat CPU  0 instructions:    3000000 cycles:    3459311 heartbeat IPC: 0.86772 cumulative IPC: 0.86722 (Simulation time: 0 hr 0 min 3 sec) 
Heartbeat CPU  0 instructions:    4000000 cycles:    4510728 heartbeat IPC: 0.95110 cumulative IPC: 0.88677 (Simulation time: 0 hr 0 min 4 sec) 
Heartbeat CPU  0 instructions:    5000001 cycles:    5594528 heartbeat IPC: 0.92268 cumulative IPC: 0.89373 (Simulation time: 0 hr 0 min 6 sec) 
Heartbeat CPU  0 instructions:    6000000 cycles:    6675544 heartbeat IPC: 0.92505 cumulative IPC: 0.89880 (Simulation time: 0 hr 0 min 7 sec) 
Heartbeat CPU  0 instructions:    7000002 cycles:    7776849 heartbeat IPC: 0.90802 cumulative IPC: 0.90011 (Simulation time: 0 hr 0 min 8 sec) 
Heartbeat CPU  0 instructions:    8000000 cycles:    8891860 heartbeat IPC: 0.89685 cumulative IPC: 0.89970 (Simulation time: 0 hr 0 min 9 sec) 
Heartbeat CPU  0 instructions:    9000002 cycles:   10003612 heartbeat IPC: 0.89948 cumulative IPC: 0.89968 (Simulation time: 0 hr 0 min 10 sec) 
Heartbeat CPU  0 instructions:   10000000 cycles:   10942775 heartbeat IPC: 1.06478 cumulative IPC: 0.91385 (Simulation time: 0 hr 0 min 11 sec) 
Heartbeat CPU  0 instructions:   11000002 cycles:   11926670 heartbeat IPC: 1.01637 cumulative IPC: 0.92230 (Simulation time: 0 hr 0 min 12 sec) 
Heartbeat CPU  0 instructions:   12000000 cycles:   13064402 heartbeat IPC: 0.87894 cumulative IPC: 0.91853 (Simulation time: 0 hr 0 min 14 sec) 
Heartbeat CPU  0 instructions:   13000001 cycles:   14085236 heartbeat IPC: 0.97959 cumulative IPC: 0.92295 (Simulation time: 0 hr 0 min 15 sec) 
Heartbeat CPU  0 instructions:   14000001 cycles:   15202356 heartbeat IPC: 0.89516 cumulative IPC: 0.92091 (Simulation time: 0 hr 0 min 16 sec) 
Heartbeat CPU  0 instructions:   15000003 cycles:   16231927 heartbeat IPC: 0.97128 cumulative IPC: 0.92410 (Simulation time: 0 hr 0 min 17 sec) 
Heartbeat CPU  0 instructions:   16000000 cycles:   17274229 heartbeat IPC: 0.95941 cumulative IPC: 0.92624 (Simulation time: 0 hr 0 min 18 sec) 
Heartbeat CPU  0 instructions:   17000001 cycles:   18299169 heartbeat IPC: 0.97567 cumulative IPC: 0.92900 (Simulation time: 0 hr 0 min 19 sec) 
Heartbeat CPU  0 instructions:   18000001 cycles:   19403483 heartbeat IPC: 0.90554 cumulative IPC: 0.92767 (Simulation time: 0 hr 0 min 21 sec) 
Heartbeat CPU  0 instructions:   19000003 cycles:   20431952 heartbeat IPC: 0.97232 cumulative IPC: 0.92992 (Simulation time: 0 hr 0 min 22 sec) 
Heartbeat CPU  0 instructions:   20000000 cycles:   21406793 heartbeat IPC: 1.02581 cumulative IPC: 0.93428 (Simulation time: 0 hr 0 min 23 sec) 
Heartbeat CPU  0 instructions:   21000002 cycles:   22411654 heartbeat IPC: 0.99516 cumulative IPC: 0.93701 (Simulation time: 0 hr 0 min 24 sec) 
Heartbeat CPU  0 instructions:   22000002 cycles:   23404057 heartbeat IPC: 1.00766 cumulative IPC: 0.94001 (Simulation time: 0 hr 0 min 25 sec) 
Heartbeat CPU  0 instructions:   23000000 cycles:   24444104 heartbeat IPC: 0.96149 cumulative IPC: 0.94092 (Simulation time: 0 hr 0 min 26 sec) 
Heartbeat CPU  0 instructions:   24000000 cycles:   25400898 heartbeat IPC: 1.04516 cumulative IPC: 0.94485 (Simulation time: 0 hr 0 min 28 sec) 
Heartbeat CPU  0 instructions:   25000000 cycles:   26459093 heartbeat IPC: 0.94501 cumulative IPC: 0.94485 (Simulation time: 0 hr 0 min 29 sec) 
Heartbeat CPU  0 instructions:   26000001 cycles:   27521566 heartbeat IPC: 0.94120 cumulative IPC: 0.94471 (Simulation time: 0 hr 0 min 30 sec) 
Heartbeat CPU  0 instructions:   27000001 cycles:   28509966 heartbeat IPC: 1.01174 cumulative IPC: 0.94704 (Simulation time: 0 hr 0 min 31 sec) 
Heartbeat CPU  0 instructions:   28000000 cycles:   29571941 heartbeat IPC: 0.94164 cumulative IPC: 0.94684 (Simulation time: 0 hr 0 min 32 sec) 
Heartbeat CPU  0 instructions:   29000002 cycles:   30608710 heartbeat IPC: 0.96454 cumulative IPC: 0.94744 (Simulation time: 0 hr 0 min 33 sec) 
Heartbeat CPU  0 instructions:   30000001 cycles:   31606019 heartbeat IPC: 1.00270 cumulative IPC: 0.94919 (Simulation time: 0 hr 0 min 35 sec) 
Heartbeat CPU  0 instructions:   31000002 cycles:   32715773 heartbeat IPC: 0.90110 cumulative IPC: 0.94756 (Simulation time: 0 hr 0 min 36 sec) 
Heartbeat CPU  0 instructions:   32000000 cycles:   33764708 heartbeat IPC: 0.95335 cumulative IPC: 0.94774 (Simulation time: 0 hr 0 min 37 sec) 
Heartbeat CPU  0 instructions:   33000000 cycles:   34831606 heartbeat IPC: 0.93730 cumulative IPC: 0.94742 (Simulation time: 0 hr 0 min 38 sec) 
Heartbeat CPU  0 instructions:   34000000 cycles:   35878507 heartbeat IPC: 0.95520 cumulative IPC: 0.94764 (Simulation time: 0 hr 0 min 39 sec) 
Heartbeat CPU  0 instructions:   35000003 cycles:   36875079 heartbeat IPC: 1.00344 cumulative IPC: 0.94915 (Simulation time: 0 hr 0 min 41 sec) 
Heartbeat CPU  0 instructions:   36000000 cycles:   37971382 heartbeat IPC: 0.91215 cumulative IPC: 0.94808 (Simulation time: 0 hr 0 min 42 sec) 
Heartbeat CPU  0 instructions:   37000003 cycles:   39033054 heartbeat IPC: 0.94191 cumulative IPC: 0.94791 (Simulation time: 0 hr 0 min 43 sec) 
Heartbeat CPU  0 instructions:   38000002 cycles:   40056631 heartbeat IPC: 0.97697 cumulative IPC: 0.94866 (Simulation time: 0 hr 0 min 44 sec) 
Heartbeat CPU  0 instructions:   39000003 cycles:   41109298 heartbeat IPC: 0.94997 cumulative IPC: 0.94869 (Simulation time: 0 hr 0 min 45 sec) 
Heartbeat CPU  0 instructions:   40000000 cycles:   42184939 heartbeat IPC: 0.92968 cumulative IPC: 0.94821 (Simulation time: 0 hr 0 min 46 sec) 
Heartbeat CPU  0 instructions:   41000003 cycles:   43307195 heartbeat IPC: 0.89106 cumulative IPC: 0.94672 (Simulation time: 0 hr 0 min 48 sec) 
Heartbeat CPU  0 instructions:   42000001 cycles:   44337729 heartbeat IPC: 0.97037 cumulative IPC: 0.94727 (Simulation time: 0 hr 0 min 49 sec) 
Heartbeat CPU  0 instructions:   43000002 cycles:   45358033 heartbeat IPC: 0.98010 cumulative IPC: 0.94801 (Simulation time: 0 hr 0 min 50 sec) 
Heartbeat CPU  0 instructions:   44000000 cycles:   46441539 heartbeat IPC: 0.92293 cumulative IPC: 0.94743 (Simulation time: 0 hr 0 min 51 sec) 
Heartbeat CPU  0 instructions:   45000001 cycles:   47556334 heartbeat IPC: 0.89703 cumulative IPC: 0.94625 (Simulation time: 0 hr 0 min 52 sec) 
Heartbeat CPU  0 instructions:   46000002 cycles:   48613625 heartbeat IPC: 0.94581 cumulative IPC: 0.94624 (Simulation time: 0 hr 0 min 53 sec) 
Heartbeat CPU  0 instructions:   47000003 cycles:   49581334 heartbeat IPC: 1.03337 cumulative IPC: 0.94794 (Simulation time: 0 hr 0 min 55 sec) 
Heartbeat CPU  0 instructions:   48000000 cycles:   50583059 heartbeat IPC: 0.99827 cumulative IPC: 0.94893 (Simulation time: 0 hr 0 min 56 sec) 
Heartbeat CPU  0 instructions:   49000000 cycles:   51639619 heartbeat IPC: 0.94647 cumulative IPC: 0.94888 (Simulation time: 0 hr 0 min 57 sec) 
Heartbeat CPU  0 instructions:   50000001 cycles:   52685472 heartbeat IPC: 0.95616 cumulative IPC: 0.94903 (Simulation time: 0 hr 0 min 58 sec) 
Heartbeat CPU  0 instructions:   51000001 cycles:   53734375 heartbeat IPC: 0.95338 cumulative IPC: 0.94911 (Simulation time: 0 hr 0 min 59 sec) 
Heartbeat CPU  0 instructions:   52000000 cycles:   54802066 heartbeat IPC: 0.93660 cumulative IPC: 0.94887 (Simulation time: 0 hr 1 min 1 sec) 
Heartbeat CPU  0 instructions:   53000000 cycles:   55909320 heartbeat IPC: 0.90314 cumulative IPC: 0.94796 (Simulation time: 0 hr 1 min 2 sec) 
Heartbeat CPU  0 instructions:   54000003 cycles:   57026733 heartbeat IPC: 0.89493 cumulative IPC: 0.94692 (Simulation time: 0 hr 1 min 3 sec) 
Heartbeat CPU  0 instructions:   55000003 cycles:   58114763 heartbeat IPC: 0.91909 cumulative IPC: 0.94640 (Simulation time: 0 hr 1 min 4 sec) 
Heartbeat CPU  0 instructions:   56000000 cycles:   59175482 heartbeat IPC: 0.94275 cumulative IPC: 0.94634 (Simulation time: 0 hr 1 min 5 sec) 
Heartbeat CPU  0 instructions:   57000000 cycles:   60281734 heartbeat IPC: 0.90395 cumulative IPC: 0.94556 (Simulation time: 0 hr 1 min 7 sec) 
Heartbeat CPU  0 instructions:   58000000 cycles:   61325934 heartbeat IPC: 0.95767 cumulative IPC: 0.94577 (Simulation time: 0 hr 1 min 8 sec) 
Heartbeat CPU  0 instructions:   59000003 cycles:   62436616 heartbeat IPC: 0.90035 cumulative IPC: 0.94496 (Simulation time: 0 hr 1 min 9 sec) 
Heartbeat CPU  0 instructions:   60000000 cycles:   63505508 heartbeat IPC: 0.93555 cumulative IPC: 0.94480 (Simulation time: 0 hr 1 min 10 sec) 
Heartbeat CPU  0 instructions:   61000001 cycles:   64646324 heartbeat IPC: 0.87657 cumulative IPC: 0.94360 (Simulation time: 0 hr 1 min 11 sec) 
Heartbeat CPU  0 instructions:   62000001 cycles:   65697125 heartbeat IPC: 0.95165 cumulative IPC: 0.94372 (Simulation time: 0 hr 1 min 12 sec) 
Heartbeat CPU  0 instructions:   63000000 cycles:   66748394 heartbeat IPC: 0.95123 cumulative IPC: 0.94384 (Simulation time: 0 hr 1 min 14 sec) 
Heartbeat CPU  0 instructions:   64000000 cycles:   67822028 heartbeat IPC: 0.93142 cumulative IPC: 0.94365 (Simulation time: 0 hr 1 min 15 sec) 
Heartbeat CPU  0 instructions:   65000000 cycles:   68903573 heartbeat IPC: 0.92460 cumulative IPC: 0.94335 (Simulation time: 0 hr 1 min 16 sec) 
Heartbeat CPU  0 instructions:   66000000 cycles:   69994800 heartbeat IPC: 0.91640 cumulative IPC: 0.94293 (Simulation time: 0 hr 1 min 17 sec) 
Heartbeat CPU  0 instructions:   67000000 cycles:   71026191 heartbeat IPC: 0.96956 cumulative IPC: 0.94331 (Simulation time: 0 hr 1 min 18 sec) 
Heartbeat CPU  0 instructions:   68000000 cycles:   72081911 heartbeat IPC: 0.94722 cumulative IPC: 0.94337 (Simulation time: 0 hr 1 min 20 sec) 
Heartbeat CPU  0 instructions:   69000003 cycles:   73170042 heartbeat IPC: 0.91901 cumulative IPC: 0.94301 (Simulation time: 0 hr 1 min 21 sec) 
Heartbeat CPU  0 instructions:   70000001 cycles:   74351697 heartbeat IPC: 0.84627 cumulative IPC: 0.94147 (Simulation time: 0 hr 1 min 22 sec) 
Heartbeat CPU  0 instructions:   71000001 cycles:   75370297 heartbeat IPC: 0.98174 cumulative IPC: 0.94202 (Simulation time: 0 hr 1 min 23 sec) 
Heartbeat CPU  0 instructions:   72000000 cycles:   76442886 heartbeat IPC: 0.93232 cumulative IPC: 0.94188 (Simulation time: 0 hr 1 min 24 sec) 
Heartbeat CPU  0 instructions:   73000002 cycles:   77570840 heartbeat IPC: 0.88656 cumulative IPC: 0.94108 (Simulation time: 0 hr 1 min 25 sec) 
Heartbeat CPU  0 instructions:   74000000 cycles:   78647759 heartbeat IPC: 0.92857 cumulative IPC: 0.94090 (Simulation time: 0 hr 1 min 27 sec) 
Heartbeat CPU  0 instructions:   75000001 cycles:   79726136 heartbeat IPC: 0.92732 cumulative IPC: 0.94072 (Simulation time: 0 hr 1 min 28 sec) 
Heartbeat CPU  0 instructions:   76000000 cycles:   80702983 heartbeat IPC: 1.02370 cumulative IPC: 0.94172 (Simulation time: 0 hr 1 min 29 sec) 
Heartbeat CPU  0 instructions:   77000001 cycles:   81791227 heartbeat IPC: 0.91891 cumulative IPC: 0.94142 (Simulation time: 0 hr 1 min 30 sec) 
Heartbeat CPU  0 instructions:   78000000 cycles:   82841612 heartbeat IPC: 0.95203 cumulative IPC: 0.94156 (Simulation time: 0 hr 1 min 31 sec) 
Heartbeat CPU  0 instructions:   79000000 cycles:   83954976 heartbeat IPC: 0.89818 cumulative IPC: 0.94098 (Simulation time: 0 hr 1 min 32 sec) 
Heartbeat CPU  0 instructions:   80000000 cycles:   84958046 heartbeat IPC: 0.99694 cumulative IPC: 0.94164 (Simulation time: 0 hr 1 min 34 sec) 
Heartbeat CPU  0 instructions:   81000003 cycles:   85975497 heartbeat IPC: 0.98285 cumulative IPC: 0.94213 (Simulation time: 0 hr 1 min 35 sec) 
Heartbeat CPU  0 instructions:   82000002 cycles:   87071765 heartbeat IPC: 0.91218 cumulative IPC: 0.94175 (Simulation time: 0 hr 1 min 36 sec) 
Heartbeat CPU  0 instructions:   83000001 cycles:   88165420 heartbeat IPC: 0.91436 cumulative IPC: 0.94141 (Simulation time: 0 hr 1 min 37 sec) 
Heartbeat CPU  0 instructions:   84000000 cycles:   89119018 heartbeat IPC: 1.04866 cumulative IPC: 0.94256 (Simulation time: 0 hr 1 min 38 sec) 
Heartbeat CPU  0 instructions:   85000001 cycles:   90259266 heartbeat IPC: 0.87700 cumulative IPC: 0.94173 (Simulation time: 0 hr 1 min 39 sec) 
Heartbeat CPU  0 instructions:   86000000 cycles:   91422234 heartbeat IPC: 0.85987 cumulative IPC: 0.94069 (Simulation time: 0 hr 1 min 41 sec) 
Heartbeat CPU  0 instructions:   87000000 cycles:   92520114 heartbeat IPC: 0.91085 cumulative IPC: 0.94034 (Simulation time: 0 hr 1 min 42 sec) 
Heartbeat CPU  0 instructions:   88000000 cycles:   93615258 heartbeat IPC: 0.91312 cumulative IPC: 0.94002 (Simulation time: 0 hr 1 min 43 sec) 
Heartbeat CPU  0 instructions:   89000001 cycles:   94757668 heartbeat IPC: 0.87534 cumulative IPC: 0.93924 (Simulation time: 0 hr 1 min 44 sec) 
Heartbeat CPU  0 instructions:   90000000 cycles:   95892212 heartbeat IPC: 0.88141 cumulative IPC: 0.93855 (Simulation time: 0 hr 1 min 45 sec) 
Heartbeat CPU  0 instructions:   91000000 cycles:   97057576 heartbeat IPC: 0.85810 cumulative IPC: 0.93759 (Simulation time: 0 hr 1 min 47 sec) 
Heartbeat CPU  0 instructions:   92000000 cycles:   98092899 heartbeat IPC: 0.96588 cumulative IPC: 0.93789 (Simulation time: 0 hr 1 min 48 sec) 
Heartbeat CPU  0 instructions:   93000003 cycles:   99057139 heartbeat IPC: 1.03709 cumulative IPC: 0.93885 (Simulation time: 0 hr 1 min 49 sec) 
Heartbeat CPU  0 instructions:   94000003 cycles:  100186152 heartbeat IPC: 0.88573 cumulative IPC: 0.93825 (Simulation time: 0 hr 1 min 50 sec) 
Heartbeat CPU  0 instructions:   95000000 cycles:  101240075 heartbeat IPC: 0.94883 cumulative IPC: 0.93836 (Simulation time: 0 hr 1 min 51 sec) 
Heartbeat CPU  0 instructions:   96000000 cycles:  102330222 heartbeat IPC: 0.91731 cumulative IPC: 0.93814 (Simulation time: 0 hr 1 min 52 sec) 
Heartbeat CPU  0 instructions:   97000000 cycles:  103447994 heartbeat IPC: 0.89464 cumulative IPC: 0.93767 (Simulation time: 0 hr 1 min 54 sec) 
Heartbeat CPU  0 instructions:   98000001 cycles:  104440445 heartbeat IPC: 1.00761 cumulative IPC: 0.93833 (Simulation time: 0 hr 1 min 55 sec) 
Heartbeat CPU  0 instructions:   99000000 cycles:  105468677 heartbeat IPC: 0.97254 cumulative IPC: 0.93867 (Simulation time: 0 hr 1 min 56 sec) 
Heartbeat CPU  0 instructions:  100000000 cycles:  106525790 heartbeat IPC: 0.94597 cumulative IPC: 0.93874 (Simulation time: 0 hr 1 min 57 sec) 

Warmup complete CPU  0 instructions:  100000001 cycles:  106525792 (Simulation time: 0 hr 1 min 57 sec) 

Heartbeat CPU  0 instructions:  101000000 cycles:  109310077 heartbeat IPC: 0.35916 cumulative IPC: 0.35916 (Simulation time: 0 hr 1 min 59 sec) 
Heartbeat CPU  0 instructions:  102000001 cycles:  111980090 heartbeat IPC: 0.37453 cumulative IPC: 0.36668 (Simulation time: 0 hr 2 min 1 sec) 
Heartbeat CPU  0 instructions:  103000003 cycles:  114626135 heartbeat IPC: 0.37792 cumulative IPC: 0.37035 (Simulation time: 0 hr 2 min 3 sec) 
Heartbeat CPU  0 instructions:  104000000 cycles:  117162282 heartbeat IPC: 0.39430 cumulative IPC: 0.37606 (Simulation time: 0 hr 2 min 5 sec) 
Heartbeat CPU  0 instructions:  105000000 cycles:  119949818 heartbeat IPC: 0.35874 cumulative IPC: 0.37247 (Simulation time: 0 hr 2 min 6 sec) 
Heartbeat CPU  0 instructions:  106000000 cycles:  122668849 heartbeat IPC: 0.36778 cumulative IPC: 0.37168 (Simulation time: 0 hr 2 min 8 sec) 
Heartbeat CPU  0 instructions:  107000002 cycles:  125269953 heartbeat IPC: 0.38445 cumulative IPC: 0.37345 (Simulation time: 0 hr 2 min 10 sec) 
Heartbeat CPU  0 instructions:  108000000 cycles:  127953796 heartbeat IPC: 0.37260 cumulative IPC: 0.37334 (Simulation time: 0 hr 2 min 12 sec) 
Heartbeat CPU  0 instructions:  109000002 cycles:  130604862 heartbeat IPC: 0.37721 cumulative IPC: 0.37377 (Simulation time: 0 hr 2 min 14 sec) 
Heartbeat CPU  0 instructions:  110000002 cycles:  133258184 heartbeat IPC: 0.37689 cumulative IPC: 0.37408 (Simulation time: 0 hr 2 min 16 sec) 
Heartbeat CPU  0 instructions:  111000000 cycles:  135795776 heartbeat IPC: 0.39407 cumulative IPC: 0.37581 (Simulation time: 0 hr 2 min 18 sec) 
Heartbeat CPU  0 instructions:  112000000 cycles:  138549698 heartbeat IPC: 0.36312 cumulative IPC: 0.37472 (Simulation time: 0 hr 2 min 20 sec) 
Heartbeat CPU  0 instructions:  113000000 cycles:  141157300 heartbeat IPC: 0.38349 cumulative IPC: 0.37538 (Simulation time: 0 hr 2 min 21 sec) 
Heartbeat CPU  0 instructions:  114000000 cycles:  143981001 heartbeat IPC: 0.35415 cumulative IPC: 0.37378 (Simulation time: 0 hr 2 min 23 sec) 
Heartbeat CPU  0 instructions:  115000003 cycles:  146714428 heartbeat IPC: 0.36584 cumulative IPC: 0.37324 (Simulation time: 0 hr 2 min 25 sec) 
Heartbeat CPU  0 instructions:  116000000 cycles:  149402475 heartbeat IPC: 0.37202 cumulative IPC: 0.37316 (Simulation time: 0 hr 2 min 27 sec) 
Heartbeat CPU  0 instructions:  117000001 cycles:  152057042 heartbeat IPC: 0.37671 cumulative IPC: 0.37337 (Simulation time: 0 hr 2 min 29 sec) 
Heartbeat CPU  0 instructions:  118000000 cycles:  154683604 heartbeat IPC: 0.38073 cumulative IPC: 0.37377 (Simulation time: 0 hr 2 min 31 sec) 
Heartbeat CPU  0 instructions:  119000001 cycles:  157484315 heartbeat IPC: 0.35705 cumulative IPC: 0.37285 (Simulation time: 0 hr 2 min 33 sec) 
Heartbeat CPU  0 instructions:  120000000 cycles:  160176261 heartbeat IPC: 0.37148 cumulative IPC: 0.37278 (Simulation time: 0 hr 2 min 35 sec) 
Heartbeat CPU  0 instructions:  121000000 cycles:  162932099 heartbeat IPC: 0.36287 cumulative IPC: 0.37230 (Simulation time: 0 hr 2 min 36 sec) 
Heartbeat CPU  0 instructions:  122000001 cycles:  165620634 heartbeat IPC: 0.37195 cumulative IPC: 0.37228 (Simulation time: 0 hr 2 min 38 sec) 
Heartbeat CPU  0 instructions:  123000000 cycles:  168243519 heartbeat IPC: 0.38126 cumulative IPC: 0.37266 (Simulation time: 0 hr 2 min 40 sec) 
Heartbeat CPU  0 instructions:  124000000 cycles:  170946455 heartbeat IPC: 0.36997 cumulative IPC: 0.37255 (Simulation time: 0 hr 2 min 42 sec) 
Heartbeat CPU  0 instructions:  125000001 cycles:  173721442 heartbeat IPC: 0.36036 cumulative IPC: 0.37205 (Simulation time: 0 hr 2 min 44 sec) 
Heartbeat CPU  0 instructions:  126000000 cycles:  176477853 heartbeat IPC: 0.36279 cumulative IPC: 0.37168 (Simulation time: 0 hr 2 min 46 sec) 
Heartbeat CPU  0 instructions:  127000000 cycles:  179034940 heartbeat IPC: 0.39107 cumulative IPC: 0.37237 (Simulation time: 0 hr 2 min 48 sec) 
Heartbeat CPU  0 instructions:  128000000 cycles:  181747922 heartbeat IPC: 0.36860 cumulative IPC: 0.37223 (Simulation time: 0 hr 2 min 50 sec) 
Heartbeat CPU  0 instructions:  129000001 cycles:  184531630 heartbeat IPC: 0.35923 cumulative IPC: 0.37177 (Simulation time: 0 hr 2 min 52 sec) 
Heartbeat CPU  0 instructions:  130000000 cycles:  187236958 heartbeat IPC: 0.36964 cumulative IPC: 0.37170 (Simulation time: 0 hr 2 min 53 sec) 
Heartbeat CPU  0 instructions:  131000001 cycles:  189834578 heartbeat IPC: 0.38497 cumulative IPC: 0.37211 (Simulation time: 0 hr 2 min 55 sec) 
Heartbeat CPU  0 instructions:  132000000 cycles:  192453154 heartbeat IPC: 0.38189 cumulative IPC: 0.37241 (Simulation time: 0 hr 2 min 57 sec) 
Heartbeat CPU  0 instructions:  133000000 cycles:  195110989 heartbeat IPC: 0.37625 cumulative IPC: 0.37252 (Simulation time: 0 hr 2 min 59 sec) 
Heartbeat CPU  0 instructions:  134000001 cycles:  197817081 heartbeat IPC: 0.36954 cumulative IPC: 0.37243 (Simulation time: 0 hr 3 min 1 sec) 
Heartbeat CPU  0 instructions:  135000002 cycles:  200567607 heartbeat IPC: 0.36357 cumulative IPC: 0.37217 (Simulation time: 0 hr 3 min 3 sec) 
Heartbeat CPU  0 instructions:  136000000 cycles:  203078432 heartbeat IPC: 0.39827 cumulative IPC: 0.37285 (Simulation time: 0 hr 3 min 5 sec) 
Heartbeat CPU  0 instructions:  137000002 cycles:  205770248 heartbeat IPC: 0.37150 cumulative IPC: 0.37282 (Simulation time: 0 hr 3 min 7 sec) 
Heartbeat CPU  0 instructions:  138000000 cycles:  208489153 heartbeat IPC: 0.36779 cumulative IPC: 0.37268 (Simulation time: 0 hr 3 min 8 sec) 
Heartbeat CPU  0 instructions:  139000000 cycles:  211144283 heartbeat IPC: 0.37663 cumulative IPC: 0.37278 (Simulation time: 0 hr 3 min 10 sec) 
Heartbeat CPU  0 instructions:  140000000 cycles:  213931651 heartbeat IPC: 0.35876 cumulative IPC: 0.37242 (Simulation time: 0 hr 3 min 12 sec) 
Heartbeat CPU  0 instructions:  141000000 cycles:  216273577 heartbeat IPC: 0.42700 cumulative IPC: 0.37358 (Simulation time: 0 hr 3 min 14 sec) 
Heartbeat CPU  0 instructions:  142000000 cycles:  218676535 heartbeat IPC: 0.41615 cumulative IPC: 0.37450 (Simulation time: 0 hr 3 min 16 sec) 
Heartbeat CPU  0 instructions:  143000000 cycles:  221515179 heartbeat IPC: 0.35228 cumulative IPC: 0.37395 (Simulation time: 0 hr 3 min 18 sec) 
Heartbeat CPU  0 instructions:  144000000 cycles:  224312237 heartbeat IPC: 0.35752 cumulative IPC: 0.37356 (Simulation time: 0 hr 3 min 19 sec) 
Heartbeat CPU  0 instructions:  145000003 cycles:  227010101 heartbeat IPC: 0.37066 cumulative IPC: 0.37349 (Simulation time: 0 hr 3 min 21 sec) 
Heartbeat CPU  0 instructions:  146000000 cycles:  229759116 heartbeat IPC: 0.36377 cumulative IPC: 0.37328 (Simulation time: 0 hr 3 min 23 sec) 
Heartbeat CPU  0 instructions:  147000000 cycles:  232446539 heartbeat IPC: 0.37210 cumulative IPC: 0.37325 (Simulation time: 0 hr 3 min 25 sec) 
Heartbeat CPU  0 instructions:  148000000 cycles:  235179405 heartbeat IPC: 0.36592 cumulative IPC: 0.37309 (Simulation time: 0 hr 3 min 27 sec) 
Heartbeat CPU  0 instructions:  149000000 cycles:  237483846 heartbeat IPC: 0.43394 cumulative IPC: 0.37417 (Simulation time: 0 hr 3 min 29 sec) 
Heartbeat CPU  0 instructions:  150000000 cycles:  239702614 heartbeat IPC: 0.45070 cumulative IPC: 0.37544 (Simulation time: 0 hr 3 min 30 sec) 
Heartbeat CPU  0 instructions:  151000003 cycles:  242197363 heartbeat IPC: 0.40084 cumulative IPC: 0.37591 (Simulation time: 0 hr 3 min 32 sec) 
Heartbeat CPU  0 instructions:  152000000 cycles:  245037156 heartbeat IPC: 0.35214 cumulative IPC: 0.37542 (Simulation time: 0 hr 3 min 34 sec) 
Heartbeat CPU  0 instructions:  153000000 cycles:  247773882 heartbeat IPC: 0.36540 cumulative IPC: 0.37523 (Simulation time: 0 hr 3 min 36 sec) 
Heartbeat CPU  0 instructions:  154000000 cycles:  250486709 heartbeat IPC: 0.36862 cumulative IPC: 0.37510 (Simulation time: 0 hr 3 min 38 sec) 
Heartbeat CPU  0 instructions:  155000002 cycles:  253197049 heartbeat IPC: 0.36896 cumulative IPC: 0.37499 (Simulation time: 0 hr 3 min 40 sec) 
Heartbeat CPU  0 instructions:  156000000 cycles:  255931004 heartbeat IPC: 0.36577 cumulative IPC: 0.37482 (Simulation time: 0 hr 3 min 41 sec) 
Heartbeat CPU  0 instructions:  157000000 cycles:  258668673 heartbeat IPC: 0.36527 cumulative IPC: 0.37465 (Simulation time: 0 hr 3 min 43 sec) 
Heartbeat CPU  0 instructions:  158000002 cycles:  260647318 heartbeat IPC: 0.50540 cumulative IPC: 0.37633 (Simulation time: 0 hr 3 min 45 sec) 
Heartbeat CPU  0 instructions:  159000001 cycles:  262956530 heartbeat IPC: 0.43305 cumulative IPC: 0.37716 (Simulation time: 0 hr 3 min 47 sec) 
Heartbeat CPU  0 instructions:  160000000 cycles:  265674600 heartbeat IPC: 0.36791 cumulative IPC: 0.37701 (Simulation time: 0 hr 3 min 49 sec) 
Heartbeat CPU  0 instructions:  161000002 cycles:  268343377 heartbeat IPC: 0.37470 cumulative IPC: 0.37697 (Simulation time: 0 hr 3 min 50 sec) 
Heartbeat CPU  0 instructions:  162000000 cycles:  271215529 heartbeat IPC: 0.34817 cumulative IPC: 0.37647 (Simulation time: 0 hr 3 min 52 sec) 
Heartbeat CPU  0 instructions:  163000001 cycles:  273908943 heartbeat IPC: 0.37128 cumulative IPC: 0.37638 (Simulation time: 0 hr 3 min 54 sec) 
Heartbeat CPU  0 instructions:  164000000 cycles:  276611192 heartbeat IPC: 0.37006 cumulative IPC: 0.37628 (Simulation time: 0 hr 3 min 56 sec) 
Heartbeat CPU  0 instructions:  165000001 cycles:  279322757 heartbeat IPC: 0.36879 cumulative IPC: 0.37616 (Simulation time: 0 hr 3 min 58 sec) 
Heartbeat CPU  0 instructions:  166000001 cycles:  282056263 heartbeat IPC: 0.36583 cumulative IPC: 0.37600 (Simulation time: 0 hr 4 min 0 sec) 
Heartbeat CPU  0 instructions:  167000003 cycles:  284849754 heartbeat IPC: 0.35798 cumulative IPC: 0.37572 (Simulation time: 0 hr 4 min 2 sec) 
Heartbeat CPU  0 instructions:  168000000 cycles:  287583792 heartbeat IPC: 0.36576 cumulative IPC: 0.37557 (Simulation time: 0 hr 4 min 3 sec) 
Heartbeat CPU  0 instructions:  169000003 cycles:  290311827 heartbeat IPC: 0.36657 cumulative IPC: 0.37544 (Simulation time: 0 hr 4 min 5 sec) 
Heartbeat CPU  0 instructions:  170000001 cycles:  293034090 heartbeat IPC: 0.36734 cumulative IPC: 0.37532 (Simulation time: 0 hr 4 min 7 sec) 
Heartbeat CPU  0 instructions:  171000001 cycles:  295109994 heartbeat IPC: 0.48172 cumulative IPC: 0.37649 (Simulation time: 0 hr 4 min 9 sec) 
Heartbeat CPU  0 instructions:  172000000 cycles:  297548282 heartbeat IPC: 0.41012 cumulative IPC: 0.37692 (Simulation time: 0 hr 4 min 11 sec) 
Heartbeat CPU  0 instructions:  173000000 cycles:  300226905 heartbeat IPC: 0.37333 cumulative IPC: 0.37687 (Simulation time: 0 hr 4 min 12 sec) 
Heartbeat CPU  0 instructions:  174000000 cycles:  302692109 heartbeat IPC: 0.40565 cumulative IPC: 0.37723 (Simulation time: 0 hr 4 min 14 sec) 
Heartbeat CPU  0 instructions:  175000000 cycles:  305215148 heartbeat IPC: 0.39635 cumulative IPC: 0.37747 (Simulation time: 0 hr 4 min 16 sec) 
Heartbeat CPU  0 instructions:  176000000 cycles:  307906500 heartbeat IPC: 0.37156 cumulative IPC: 0.37739 (Simulation time: 0 hr 4 min 18 sec) 
Heartbeat CPU  0 instructions:  177000000 cycles:  310659511 heartbeat IPC: 0.36324 cumulative IPC: 0.37720 (Simulation time: 0 hr 4 min 20 sec) 
Heartbeat CPU  0 instructions:  178000003 cycles:  313306927 heartbeat IPC: 0.37773 cumulative IPC: 0.37721 (Simulation time: 0 hr 4 min 22 sec) 
Heartbeat CPU  0 instructions:  179000002 cycles:  315997561 heartbeat IPC: 0.37166 cumulative IPC: 0.37714 (Simulation time: 0 hr 4 min 24 sec) 
Heartbeat CPU  0 instructions:  180000000 cycles:  318603791 heartbeat IPC: 0.38370 cumulative IPC: 0.37722 (Simulation time: 0 hr 4 min 26 sec) 
Heartbeat CPU  0 instructions:  181000001 cycles:  321322355 heartbeat IPC: 0.36784 cumulative IPC: 0.37710 (Simulation time: 0 hr 4 min 27 sec) 
Heartbeat CPU  0 instructions:  182000000 cycles:  324179643 heartbeat IPC: 0.34998 cumulative IPC: 0.37674 (Simulation time: 0 hr 4 min 29 sec) 
Heartbeat CPU  0 instructions:  183000000 cycles:  326892566 heartbeat IPC: 0.36861 cumulative IPC: 0.37664 (Simulation time: 0 hr 4 min 31 sec) 
Heartbeat CPU  0 instructions:  184000000 cycles:  329583573 heartbeat IPC: 0.37161 cumulative IPC: 0.37658 (Simulation time: 0 hr 4 min 33 sec) 
Heartbeat CPU  0 instructions:  185000000 cycles:  332261091 heartbeat IPC: 0.37348 cumulative IPC: 0.37655 (Simulation time: 0 hr 4 min 35 sec) 
Heartbeat CPU  0 instructions:  186000003 cycles:  334983208 heartbeat IPC: 0.36736 cumulative IPC: 0.37644 (Simulation time: 0 hr 4 min 37 sec) 
Heartbeat CPU  0 instructions:  187000001 cycles:  337748866 heartbeat IPC: 0.36158 cumulative IPC: 0.37626 (Simulation time: 0 hr 4 min 39 sec) 
Heartbeat CPU  0 instructions:  188000000 cycles:  340473280 heartbeat IPC: 0.36705 cumulative IPC: 0.37615 (Simulation time: 0 hr 4 min 41 sec) 
Heartbeat CPU  0 instructions:  189000001 cycles:  343202376 heartbeat IPC: 0.36642 cumulative IPC: 0.37604 (Simulation time: 0 hr 4 min 42 sec) 
Heartbeat CPU  0 instructions:  190000000 cycles:  345997306 heartbeat IPC: 0.35779 cumulative IPC: 0.37583 (Simulation time: 0 hr 4 min 44 sec) 
Heartbeat CPU  0 instructions:  191000001 cycles:  348705037 heartbeat IPC: 0.36931 cumulative IPC: 0.37575 (Simulation time: 0 hr 4 min 46 sec) 
Heartbeat CPU  0 instructions:  192000000 cycles:  351467657 heartbeat IPC: 0.36197 cumulative IPC: 0.37560 (Simulation time: 0 hr 4 min 48 sec) 
Heartbeat CPU  0 instructions:  193000002 cycles:  354060794 heartbeat IPC: 0.38563 cumulative IPC: 0.37570 (Simulation time: 0 hr 4 min 50 sec) 
Heartbeat CPU  0 instructions:  194000001 cycles:  356001491 heartbeat IPC: 0.51528 cumulative IPC: 0.37679 (Simulation time: 0 hr 4 min 51 sec) 
Heartbeat CPU  0 instructions:  195000000 cycles:  358447525 heartbeat IPC: 0.40882 cumulative IPC: 0.37710 (Simulation time: 0 hr 4 min 53 sec) 
Heartbeat CPU  0 instructions:  196000000 cycles:  361346141 heartbeat IPC: 0.34499 cumulative IPC: 0.37674 (Simulation time: 0 hr 4 min 55 sec) 
Heartbeat CPU  0 instructions:  197000000 cycles:  364030944 heartbeat IPC: 0.37247 cumulative IPC: 0.37669 (Simulation time: 0 hr 4 min 57 sec) 
Heartbeat CPU  0 instructions:  198000000 cycles:  366750559 heartbeat IPC: 0.36770 cumulative IPC: 0.37660 (Simulation time: 0 hr 4 min 59 sec) 
Heartbeat CPU  0 instructions:  199000000 cycles:  369354416 heartbeat IPC: 0.38405 cumulative IPC: 0.37667 (Simulation time: 0 hr 5 min 1 sec) 
Heartbeat CPU  0 instructions:  200000000 cycles:  371883644 heartbeat IPC: 0.39538 cumulative IPC: 0.37685 (Simulation time: 0 hr 5 min 3 sec) 
Heartbeat CPU  0 instructions:  201000001 cycles:  374617789 heartbeat IPC: 0.36575 cumulative IPC: 0.37674 (Simulation time: 0 hr 5 min 4 sec) 
Heartbeat CPU  0 instructions:  202000002 cycles:  377285152 heartbeat IPC: 0.37490 cumulative IPC: 0.37672 (Simulation time: 0 hr 5 min 6 sec) 
Heartbeat CPU  0 instructions:  203000001 cycles:  380039187 heartbeat IPC: 0.36310 cumulative IPC: 0.37658 (Simulation time: 0 hr 5 min 8 sec) 
Heartbeat CPU  0 instructions:  204000000 cycles:  382808776 heartbeat IPC: 0.36106 cumulative IPC: 0.37643 (Simulation time: 0 hr 5 min 10 sec) 
Heartbeat CPU  0 instructions:  205000002 cycles:  385508390 heartbeat IPC: 0.37042 cumulative IPC: 0.37637 (Simulation time: 0 hr 5 min 12 sec) 
Heartbeat CPU  0 instructions:  206000002 cycles:  388223900 heartbeat IPC: 0.36825 cumulative IPC: 0.37629 (Simulation time: 0 hr 5 min 14 sec) 
Heartbeat CPU  0 instructions:  207000001 cycles:  390920634 heartbeat IPC: 0.37082 cumulative IPC: 0.37624 (Simulation time: 0 hr 5 min 16 sec) 
Heartbeat CPU  0 instructions:  208000000 cycles:  393679596 heartbeat IPC: 0.36245 cumulative IPC: 0.37611 (Simulation time: 0 hr 5 min 17 sec) 
Heartbeat CPU  0 instructions:  209000001 cycles:  396226655 heartbeat IPC: 0.39261 cumulative IPC: 0.37625 (Simulation time: 0 hr 5 min 19 sec) 
Heartbeat CPU  0 instructions:  210000000 cycles:  398447446 heartbeat IPC: 0.45029 cumulative IPC: 0.37681 (Simulation time: 0 hr 5 min 21 sec) 
Heartbeat CPU  0 instructions:  211000000 cycles:  400718011 heartbeat IPC: 0.44042 cumulative IPC: 0.37730 (Simulation time: 0 hr 5 min 23 sec) 
Heartbeat CPU  0 instructions:  212000000 cycles:  403506819 heartbeat IPC: 0.35858 cumulative IPC: 0.37713 (Simulation time: 0 hr 5 min 25 sec) 
Heartbeat CPU  0 instructions:  213000000 cycles:  406231384 heartbeat IPC: 0.36703 cumulative IPC: 0.37704 (Simulation time: 0 hr 5 min 26 sec) 
Heartbeat CPU  0 instructions:  214000000 cycles:  409051852 heartbeat IPC: 0.35455 cumulative IPC: 0.37683 (Simulation time: 0 hr 5 min 28 sec) 
Heartbeat CPU  0 instructions:  215000002 cycles:  411801411 heartbeat IPC: 0.36370 cumulative IPC: 0.37671 (Simulation time: 0 hr 5 min 30 sec) 
Heartbeat CPU  0 instructions:  216000000 cycles:  414520922 heartbeat IPC: 0.36771 cumulative IPC: 0.37663 (Simulation time: 0 hr 5 min 32 sec) 
Heartbeat CPU  0 instructions:  217000000 cycles:  417202188 heartbeat IPC: 0.37296 cumulative IPC: 0.37660 (Simulation time: 0 hr 5 min 34 sec) 
Heartbeat CPU  0 instructions:  218000003 cycles:  419934424 heartbeat IPC: 0.36600 cumulative IPC: 0.37651 (Simulation time: 0 hr 5 min 36 sec) 
Heartbeat CPU  0 instructions:  219000000 cycles:  422674200 heartbeat IPC: 0.36499 cumulative IPC: 0.37641 (Simulation time: 0 hr 5 min 38 sec) 
Heartbeat CPU  0 instructions:  220000000 cycles:  425360104 heartbeat IPC: 0.37231 cumulative IPC: 0.37637 (Simulation time: 0 hr 5 min 40 sec) 
Heartbeat CPU  0 instructions:  221000001 cycles:  428123222 heartbeat IPC: 0.36191 cumulative IPC: 0.37625 (Simulation time: 0 hr 5 min 41 sec) 
Heartbeat CPU  0 instructions:  222000001 cycles:  430887643 heartbeat IPC: 0.36174 cumulative IPC: 0.37612 (Simulation time: 0 hr 5 min 43 sec) 
Heartbeat CPU  0 instructions:  223000002 cycles:  433663224 heartbeat IPC: 0.36029 cumulative IPC: 0.37599 (Simulation time: 0 hr 5 min 45 sec) 
Heartbeat CPU  0 instructions:  224000000 cycles:  436442406 heartbeat IPC: 0.35982 cumulative IPC: 0.37585 (Simulation time: 0 hr 5 min 47 sec) 
Heartbeat CPU  0 instructions:  225000000 cycles:  439213695 heartbeat IPC: 0.36084 cumulative IPC: 0.37573 (Simulation time: 0 hr 5 min 49 sec) 
Heartbeat CPU  0 instructions:  226000001 cycles:  442012767 heartbeat IPC: 0.35726 cumulative IPC: 0.37557 (Simulation time: 0 hr 5 min 51 sec) 
Heartbeat CPU  0 instructions:  227000000 cycles:  444730715 heartbeat IPC: 0.36792 cumulative IPC: 0.37551 (Simulation time: 0 hr 5 min 53 sec) 
Heartbeat CPU  0 instructions:  228000000 cycles:  447459371 heartbeat IPC: 0.36648 cumulative IPC: 0.37544 (Simulation time: 0 hr 5 min 54 sec) 
Heartbeat CPU  0 instructions:  229000000 cycles:  449802513 heartbeat IPC: 0.42678 cumulative IPC: 0.37579 (Simulation time: 0 hr 5 min 56 sec) 
Heartbeat CPU  0 instructions:  230000000 cycles:  451863703 heartbeat IPC: 0.48516 cumulative IPC: 0.37644 (Simulation time: 0 hr 5 min 58 sec) 
Heartbeat CPU  0 instructions:  231000001 cycles:  454635693 heartbeat IPC: 0.36075 cumulative IPC: 0.37632 (Simulation time: 0 hr 6 min 0 sec) 
Heartbeat CPU  0 instructions:  232000000 cycles:  457129329 heartbeat IPC: 0.40102 cumulative IPC: 0.37649 (Simulation time: 0 hr 6 min 2 sec) 
Heartbeat CPU  0 instructions:  233000002 cycles:  459666675 heartbeat IPC: 0.39411 cumulative IPC: 0.37662 (Simulation time: 0 hr 6 min 3 sec) 
Heartbeat CPU  0 instructions:  234000002 cycles:  462356550 heartbeat IPC: 0.37176 cumulative IPC: 0.37658 (Simulation time: 0 hr 6 min 5 sec) 
Heartbeat CPU  0 instructions:  235000002 cycles:  465071485 heartbeat IPC: 0.36833 cumulative IPC: 0.37652 (Simulation time: 0 hr 6 min 7 sec) 
Heartbeat CPU  0 instructions:  236000000 cycles:  467703226 heartbeat IPC: 0.37998 cumulative IPC: 0.37655 (Simulation time: 0 hr 6 min 9 sec) 
Heartbeat CPU  0 instructions:  237000001 cycles:  470362974 heartbeat IPC: 0.37598 cumulative IPC: 0.37654 (Simulation time: 0 hr 6 min 11 sec) 
Heartbeat CPU  0 instructions:  238000002 cycles:  473141071 heartbeat IPC: 0.35996 cumulative IPC: 0.37642 (Simulation time: 0 hr 6 min 13 sec) 
Heartbeat CPU  0 instructions:  239000000 cycles:  475757763 heartbeat IPC: 0.38216 cumulative IPC: 0.37646 (Simulation time: 0 hr 6 min 15 sec) 
Heartbeat CPU  0 instructions:  240000000 cycles:  478526395 heartbeat IPC: 0.36119 cumulative IPC: 0.37634 (Simulation time: 0 hr 6 min 17 sec) 
Heartbeat CPU  0 instructions:  241000001 cycles:  481323890 heartbeat IPC: 0.35746 cumulative IPC: 0.37620 (Simulation time: 0 hr 6 min 18 sec) 
Heartbeat CPU  0 instructions:  242000000 cycles:  484012795 heartbeat IPC: 0.37190 cumulative IPC: 0.37617 (Simulation time: 0 hr 6 min 20 sec) 
Heartbeat CPU  0 instructions:  243000002 cycles:  486813540 heartbeat IPC: 0.35705 cumulative IPC: 0.37603 (Simulation time: 0 hr 6 min 22 sec) 
Heartbeat CPU  0 instructions:  244000000 cycles:  489554374 heartbeat IPC: 0.36485 cumulative IPC: 0.37595 (Simulation time: 0 hr 6 min 24 sec) 
Heartbeat CPU  0 instructions:  245000001 cycles:  492206947 heartbeat IPC: 0.37699 cumulative IPC: 0.37596 (Simulation time: 0 hr 6 min 26 sec) 
Heartbeat CPU  0 instructions:  246000000 cycles:  494685660 heartbeat IPC: 0.40343 cumulative IPC: 0.37613 (Simulation time: 0 hr 6 min 28 sec) 
Heartbeat CPU  0 instructions:  247000001 cycles:  497452088 heartbeat IPC: 0.36148 cumulative IPC: 0.37603 (Simulation time: 0 hr 6 min 30 sec) 
Heartbeat CPU  0 instructions:  248000000 cycles:  499988391 heartbeat IPC: 0.39427 cumulative IPC: 0.37615 (Simulation time: 0 hr 6 min 31 sec) 
Heartbeat CPU  0 instructions:  249000000 cycles:  502680971 heartbeat IPC: 0.37139 cumulative IPC: 0.37612 (Simulation time: 0 hr 6 min 33 sec) 
Heartbeat CPU  0 instructions:  250000000 cycles:  505365312 heartbeat IPC: 0.37253 cumulative IPC: 0.37609 (Simulation time: 0 hr 6 min 35 sec) 
Heartbeat CPU  0 instructions:  251000000 cycles:  507725340 heartbeat IPC: 0.42372 cumulative IPC: 0.37637 (Simulation time: 0 hr 6 min 37 sec) 
Heartbeat CPU  0 instructions:  252000000 cycles:  510018619 heartbeat IPC: 0.43606 cumulative IPC: 0.37671 (Simulation time: 0 hr 6 min 39 sec) 
Heartbeat CPU  0 instructions:  253000001 cycles:  512464595 heartbeat IPC: 0.40884 cumulative IPC: 0.37690 (Simulation time: 0 hr 6 min 40 sec) 
Heartbeat CPU  0 instructions:  254000000 cycles:  515076553 heartbeat IPC: 0.38285 cumulative IPC: 0.37694 (Simulation time: 0 hr 6 min 42 sec) 
Heartbeat CPU  0 instructions:  255000001 cycles:  517460456 heartbeat IPC: 0.41948 cumulative IPC: 0.37719 (Simulation time: 0 hr 6 min 44 sec) 
Heartbeat CPU  0 instructions:  256000000 cycles:  520265090 heartbeat IPC: 0.35655 cumulative IPC: 0.37705 (Simulation time: 0 hr 6 min 46 sec) 
Heartbeat CPU  0 instructions:  257000002 cycles:  523068668 heartbeat IPC: 0.35669 cumulative IPC: 0.37691 (Simulation time: 0 hr 6 min 48 sec) 
Heartbeat CPU  0 instructions:  258000001 cycles:  525803699 heartbeat IPC: 0.36563 cumulative IPC: 0.37684 (Simulation time: 0 hr 6 min 50 sec) 
Heartbeat CPU  0 instructions:  259000000 cycles:  528488134 heartbeat IPC: 0.37252 cumulative IPC: 0.37681 (Simulation time: 0 hr 6 min 52 sec) 
Heartbeat CPU  0 instructions:  260000000 cycles:  531181934 heartbeat IPC: 0.37122 cumulative IPC: 0.37678 (Simulation time: 0 hr 6 min 54 sec) 
Heartbeat CPU  0 instructions:  261000001 cycles:  533985592 heartbeat IPC: 0.35668 cumulative IPC: 0.37664 (Simulation time: 0 hr 6 min 55 sec) 
Heartbeat CPU  0 instructions:  262000003 cycles:  536636715 heartbeat IPC: 0.37720 cumulative IPC: 0.37665 (Simulation time: 0 hr 6 min 57 sec) 
Heartbeat CPU  0 instructions:  263000002 cycles:  539425953 heartbeat IPC: 0.35852 cumulative IPC: 0.37653 (Simulation time: 0 hr 6 min 59 sec) 
Heartbeat CPU  0 instructions:  264000000 cycles:  542053058 heartbeat IPC: 0.38065 cumulative IPC: 0.37656 (Simulation time: 0 hr 7 min 1 sec) 
Heartbeat CPU  0 instructions:  265000000 cycles:  544800924 heartbeat IPC: 0.36392 cumulative IPC: 0.37648 (Simulation time: 0 hr 7 min 3 sec) 
Heartbeat CPU  0 instructions:  266000001 cycles:  547619443 heartbeat IPC: 0.35480 cumulative IPC: 0.37634 (Simulation time: 0 hr 7 min 5 sec) 
Heartbeat CPU  0 instructions:  267000003 cycles:  550326390 heartbeat IPC: 0.36942 cumulative IPC: 0.37630 (Simulation time: 0 hr 7 min 7 sec) 
Heartbeat CPU  0 instructions:  268000000 cycles:  553096211 heartbeat IPC: 0.36103 cumulative IPC: 0.37620 (Simulation time: 0 hr 7 min 8 sec) 
Heartbeat CPU  0 instructions:  269000001 cycles:  555845144 heartbeat IPC: 0.36378 cumulative IPC: 0.37612 (Simulation time: 0 hr 7 min 10 sec) 
Heartbeat CPU  0 instructions:  270000000 cycles:  558716120 heartbeat IPC: 0.34831 cumulative IPC: 0.37595 (Simulation time: 0 hr 7 min 12 sec) 
Heartbeat CPU  0 instructions:  271000000 cycles:  561444142 heartbeat IPC: 0.36657 cumulative IPC: 0.37589 (Simulation time: 0 hr 7 min 14 sec) 
Heartbeat CPU  0 instructions:  272000000 cycles:  564164161 heartbeat IPC: 0.36764 cumulative IPC: 0.37584 (Simulation time: 0 hr 7 min 16 sec) 
Heartbeat CPU  0 instructions:  273000001 cycles:  566553996 heartbeat IPC: 0.41844 cumulative IPC: 0.37606 (Simulation time: 0 hr 7 min 18 sec) 
Heartbeat CPU  0 instructions:  274000000 cycles:  568805624 heartbeat IPC: 0.44412 cumulative IPC: 0.37640 (Simulation time: 0 hr 7 min 19 sec) 
Heartbeat CPU  0 instructions:  275000001 cycles:  571274373 heartbeat IPC: 0.40506 cumulative IPC: 0.37655 (Simulation time: 0 hr 7 min 21 sec) 
Heartbeat CPU  0 instructions:  276000000 cycles:  573910956 heartbeat IPC: 0.37928 cumulative IPC: 0.37656 (Simulation time: 0 hr 7 min 23 sec) 
Heartbeat CPU  0 instructions:  277000000 cycles:  576690259 heartbeat IPC: 0.35980 cumulative IPC: 0.37646 (Simulation time: 0 hr 7 min 25 sec) 
Heartbeat CPU  0 instructions:  278000001 cycles:  579536003 heartbeat IPC: 0.35140 cumulative IPC: 0.37631 (Simulation time: 0 hr 7 min 27 sec) 
Heartbeat CPU  0 instructions:  279000002 cycles:  582286636 heartbeat IPC: 0.36355 cumulative IPC: 0.37624 (Simulation time: 0 hr 7 min 29 sec) 
Heartbeat CPU  0 instructions:  280000000 cycles:  584972897 heartbeat IPC: 0.37226 cumulative IPC: 0.37622 (Simulation time: 0 hr 7 min 30 sec) 
Heartbeat CPU  0 instructions:  281000000 cycles:  587691237 heartbeat IPC: 0.36787 cumulative IPC: 0.37617 (Simulation time: 0 hr 7 min 32 sec) 
Heartbeat CPU  0 instructions:  282000003 cycles:  590476094 heartbeat IPC: 0.35909 cumulative IPC: 0.37607 (Simulation time: 0 hr 7 min 34 sec) 
Heartbeat CPU  0 instructions:  283000003 cycles:  593193153 heartbeat IPC: 0.36805 cumulative IPC: 0.37603 (Simulation time: 0 hr 7 min 36 sec) 
Heartbeat CPU  0 instructions:  284000000 cycles:  595815107 heartbeat IPC: 0.38139 cumulative IPC: 0.37606 (Simulation time: 0 hr 7 min 38 sec) 
Heartbeat CPU  0 instructions:  285000001 cycles:  598604286 heartbeat IPC: 0.35853 cumulative IPC: 0.37596 (Simulation time: 0 hr 7 min 40 sec) 
Heartbeat CPU  0 instructions:  286000003 cycles:  601285265 heartbeat IPC: 0.37300 cumulative IPC: 0.37594 (Simulation time: 0 hr 7 min 42 sec) 
Heartbeat CPU  0 instructions:  287000000 cycles:  604024532 heartbeat IPC: 0.36506 cumulative IPC: 0.37588 (Simulation time: 0 hr 7 min 44 sec) 
Heartbeat CPU  0 instructions:  288000000 cycles:  606808211 heartbeat IPC: 0.35924 cumulative IPC: 0.37579 (Simulation time: 0 hr 7 min 45 sec) 
Heartbeat CPU  0 instructions:  289000000 cycles:  609526350 heartbeat IPC: 0.36790 cumulative IPC: 0.37575 (Simulation time: 0 hr 7 min 47 sec) 
Heartbeat CPU  0 instructions:  290000000 cycles:  612335771 heartbeat IPC: 0.35595 cumulative IPC: 0.37564 (Simulation time: 0 hr 7 min 49 sec) 
Heartbeat CPU  0 instructions:  291000000 cycles:  615068627 heartbeat IPC: 0.36592 cumulative IPC: 0.37558 (Simulation time: 0 hr 7 min 51 sec) 
Heartbeat CPU  0 instructions:  292000000 cycles:  617762044 heartbeat IPC: 0.37128 cumulative IPC: 0.37556 (Simulation time: 0 hr 7 min 53 sec) 
Heartbeat CPU  0 instructions:  293000002 cycles:  620585652 heartbeat IPC: 0.35416 cumulative IPC: 0.37544 (Simulation time: 0 hr 7 min 55 sec) 
Heartbeat CPU  0 instructions:  294000003 cycles:  623285308 heartbeat IPC: 0.37042 cumulative IPC: 0.37542 (Simulation time: 0 hr 7 min 57 sec) 
Heartbeat CPU  0 instructions:  295000003 cycles:  626046823 heartbeat IPC: 0.36212 cumulative IPC: 0.37535 (Simulation time: 0 hr 7 min 58 sec) 
Heartbeat CPU  0 instructions:  296000000 cycles:  628666325 heartbeat IPC: 0.38175 cumulative IPC: 0.37538 (Simulation time: 0 hr 8 min 0 sec) 
Heartbeat CPU  0 instructions:  297000001 cycles:  630804877 heartbeat IPC: 0.46761 cumulative IPC: 0.37575 (Simulation time: 0 hr 8 min 2 sec) 
Heartbeat CPU  0 instructions:  298000000 cycles:  633207690 heartbeat IPC: 0.41618 cumulative IPC: 0.37594 (Simulation time: 0 hr 8 min 4 sec) 
Heartbeat CPU  0 instructions:  299000000 cycles:  635842888 heartbeat IPC: 0.37948 cumulative IPC: 0.37596 (Simulation time: 0 hr 8 min 5 sec) 
Heartbeat CPU  0 instructions:  300000000 cycles:  638348873 heartbeat IPC: 0.39904 cumulative IPC: 0.37606 (Simulation time: 0 hr 8 min 7 sec) 
Heartbeat CPU  0 instructions:  301000001 cycles:  640844438 heartbeat IPC: 0.40071 cumulative IPC: 0.37618 (Simulation time: 0 hr 8 min 9 sec) 
Heartbeat CPU  0 instructions:  302000000 cycles:  643431010 heartbeat IPC: 0.38661 cumulative IPC: 0.37623 (Simulation time: 0 hr 8 min 11 sec) 
Heartbeat CPU  0 instructions:  303000003 cycles:  646174582 heartbeat IPC: 0.36449 cumulative IPC: 0.37617 (Simulation time: 0 hr 8 min 13 sec) 
Heartbeat CPU  0 instructions:  304000000 cycles:  648843297 heartbeat IPC: 0.37471 cumulative IPC: 0.37616 (Simulation time: 0 hr 8 min 15 sec) 
Heartbeat CPU  0 instructions:  305000000 cycles:  651572092 heartbeat IPC: 0.36646 cumulative IPC: 0.37611 (Simulation time: 0 hr 8 min 17 sec) 
Heartbeat CPU  0 instructions:  306000002 cycles:  654408188 heartbeat IPC: 0.35260 cumulative IPC: 0.37599 (Simulation time: 0 hr 8 min 19 sec) 
Heartbeat CPU  0 instructions:  307000000 cycles:  657145866 heartbeat IPC: 0.36527 cumulative IPC: 0.37594 (Simulation time: 0 hr 8 min 21 sec) 
Heartbeat CPU  0 instructions:  308000000 cycles:  659835440 heartbeat IPC: 0.37181 cumulative IPC: 0.37592 (Simulation time: 0 hr 8 min 23 sec) 
Heartbeat CPU  0 instructions:  309000000 cycles:  662540530 heartbeat IPC: 0.36967 cumulative IPC: 0.37589 (Simulation time: 0 hr 8 min 25 sec) 
Heartbeat CPU  0 instructions:  310000000 cycles:  665291763 heartbeat IPC: 0.36347 cumulative IPC: 0.37583 (Simulation time: 0 hr 8 min 27 sec) 
Heartbeat CPU  0 instructions:  311000003 cycles:  668016904 heartbeat IPC: 0.36695 cumulative IPC: 0.37579 (Simulation time: 0 hr 8 min 29 sec) 
Heartbeat CPU  0 instructions:  312000000 cycles:  670640642 heartbeat IPC: 0.38113 cumulative IPC: 0.37581 (Simulation time: 0 hr 8 min 31 sec) 
Heartbeat CPU  0 instructions:  313000000 cycles:  673398234 heartbeat IPC: 0.36264 cumulative IPC: 0.37575 (Simulation time: 0 hr 8 min 34 sec) 
Heartbeat CPU  0 instructions:  314000002 cycles:  676105491 heartbeat IPC: 0.36938 cumulative IPC: 0.37572 (Simulation time: 0 hr 8 min 36 sec) 
Heartbeat CPU  0 instructions:  315000002 cycles:  678791105 heartbeat IPC: 0.37235 cumulative IPC: 0.37570 (Simulation time: 0 hr 8 min 38 sec) 
Heartbeat CPU  0 instructions:  316000000 cycles:  681548298 heartbeat IPC: 0.36269 cumulative IPC: 0.37564 (Simulation time: 0 hr 8 min 40 sec) 
Heartbeat CPU  0 instructions:  317000001 cycles:  684305998 heartbeat IPC: 0.36262 cumulative IPC: 0.37558 (Simulation time: 0 hr 8 min 43 sec) 
Heartbeat CPU  0 instructions:  318000000 cycles:  687071852 heartbeat IPC: 0.36155 cumulative IPC: 0.37551 (Simulation time: 0 hr 8 min 45 sec) 
Heartbeat CPU  0 instructions:  319000000 cycles:  689825880 heartbeat IPC: 0.36310 cumulative IPC: 0.37545 (Simulation time: 0 hr 8 min 47 sec) 
Heartbeat CPU  0 instructions:  320000000 cycles:  692517020 heartbeat IPC: 0.37159 cumulative IPC: 0.37543 (Simulation time: 0 hr 8 min 50 sec) 
Heartbeat CPU  0 instructions:  321000003 cycles:  695055063 heartbeat IPC: 0.39401 cumulative IPC: 0.37551 (Simulation time: 0 hr 8 min 52 sec) 
Heartbeat CPU  0 instructions:  322000002 cycles:  697550263 heartbeat IPC: 0.40077 cumulative IPC: 0.37562 (Simulation time: 0 hr 8 min 54 sec) 
Heartbeat CPU  0 instructions:  323000000 cycles:  699674723 heartbeat IPC: 0.47071 cumulative IPC: 0.37596 (Simulation time: 0 hr 8 min 56 sec) 
Heartbeat CPU  0 instructions:  324000000 cycles:  702081221 heartbeat IPC: 0.41554 cumulative IPC: 0.37612 (Simulation time: 0 hr 8 min 57 sec) 
Heartbeat CPU  0 instructions:  325000000 cycles:  704714888 heartbeat IPC: 0.37970 cumulative IPC: 0.37614 (Simulation time: 0 hr 9 min 0 sec) 
Heartbeat CPU  0 instructions:  326000000 cycles:  707345472 heartbeat IPC: 0.38014 cumulative IPC: 0.37615 (Simulation time: 0 hr 9 min 2 sec) 
Heartbeat CPU  0 instructions:  327000002 cycles:  710044731 heartbeat IPC: 0.37047 cumulative IPC: 0.37613 (Simulation time: 0 hr 9 min 4 sec) 
Heartbeat CPU  0 instructions:  328000000 cycles:  712681834 heartbeat IPC: 0.37920 cumulative IPC: 0.37614 (Simulation time: 0 hr 9 min 6 sec) 
Heartbeat CPU  0 instructions:  329000001 cycles:  715395399 heartbeat IPC: 0.36852 cumulative IPC: 0.37611 (Simulation time: 0 hr 9 min 8 sec) 
Heartbeat CPU  0 instructions:  330000000 cycles:  718211846 heartbeat IPC: 0.35506 cumulative IPC: 0.37601 (Simulation time: 0 hr 9 min 10 sec) 
Heartbeat CPU  0 instructions:  331000000 cycles:  721033140 heartbeat IPC: 0.35445 cumulative IPC: 0.37591 (Simulation time: 0 hr 9 min 12 sec) 
Heartbeat CPU  0 instructions:  332000000 cycles:  723700767 heartbeat IPC: 0.37486 cumulative IPC: 0.37591 (Simulation time: 0 hr 9 min 14 sec) 
Heartbeat CPU  0 instructions:  333000000 cycles:  726368683 heartbeat IPC: 0.37482 cumulative IPC: 0.37590 (Simulation time: 0 hr 9 min 17 sec) 
Heartbeat CPU  0 instructions:  334000001 cycles:  729119252 heartbeat IPC: 0.36356 cumulative IPC: 0.37585 (Simulation time: 0 hr 9 min 19 sec) 
Heartbeat CPU  0 instructions:  335000003 cycles:  731866143 heartbeat IPC: 0.36405 cumulative IPC: 0.37580 (Simulation time: 0 hr 9 min 21 sec) 
Heartbeat CPU  0 instructions:  336000000 cycles:  734526566 heartbeat IPC: 0.37588 cumulative IPC: 0.37580 (Simulation time: 0 hr 9 min 23 sec) 
Heartbeat CPU  0 instructions:  337000000 cycles:  737240166 heartbeat IPC: 0.36851 cumulative IPC: 0.37576 (Simulation time: 0 hr 9 min 25 sec) 
Heartbeat CPU  0 instructions:  338000000 cycles:  739991621 heartbeat IPC: 0.36344 cumulative IPC: 0.37571 (Simulation time: 0 hr 9 min 27 sec) 
Heartbeat CPU  0 instructions:  339000000 cycles:  742640647 heartbeat IPC: 0.37750 cumulative IPC: 0.37572 (Simulation time: 0 hr 9 min 29 sec) 
Heartbeat CPU  0 instructions:  340000000 cycles:  745381092 heartbeat IPC: 0.36490 cumulative IPC: 0.37567 (Simulation time: 0 hr 9 min 31 sec) 
Heartbeat CPU  0 instructions:  341000002 cycles:  748194709 heartbeat IPC: 0.35542 cumulative IPC: 0.37558 (Simulation time: 0 hr 9 min 33 sec) 
Heartbeat CPU  0 instructions:  342000000 cycles:  750903400 heartbeat IPC: 0.36918 cumulative IPC: 0.37556 (Simulation time: 0 hr 9 min 35 sec) 
Heartbeat CPU  0 instructions:  343000000 cycles:  753685454 heartbeat IPC: 0.35945 cumulative IPC: 0.37549 (Simulation time: 0 hr 9 min 37 sec) 
Heartbeat CPU  0 instructions:  344000000 cycles:  756405843 heartbeat IPC: 0.36759 cumulative IPC: 0.37545 (Simulation time: 0 hr 9 min 39 sec) 
Heartbeat CPU  0 instructions:  345000000 cycles:  758953249 heartbeat IPC: 0.39256 cumulative IPC: 0.37552 (Simulation time: 0 hr 9 min 42 sec) 
Heartbeat CPU  0 instructions:  346000001 cycles:  761548277 heartbeat IPC: 0.38535 cumulative IPC: 0.37556 (Simulation time: 0 hr 9 min 44 sec) 
Heartbeat CPU  0 instructions:  347000000 cycles:  763617796 heartbeat IPC: 0.48320 cumulative IPC: 0.37590 (Simulation time: 0 hr 9 min 46 sec) 
Heartbeat CPU  0 instructions:  348000000 cycles:  765888517 heartbeat IPC: 0.44039 cumulative IPC: 0.37612 (Simulation time: 0 hr 9 min 48 sec) 
Heartbeat CPU  0 instructions:  349000003 cycles:  768576232 heartbeat IPC: 0.37206 cumulative IPC: 0.37610 (Simulation time: 0 hr 9 min 50 sec) 
Heartbeat CPU  0 instructions:  350000002 cycles:  771257478 heartbeat IPC: 0.37296 cumulative IPC: 0.37609 (Simulation time: 0 hr 9 min 52 sec) 
Heartbeat CPU  0 instructions:  351000001 cycles:  773893337 heartbeat IPC: 0.37938 cumulative IPC: 0.37610 (Simulation time: 0 hr 9 min 54 sec) 
Heartbeat CPU  0 instructions:  352000000 cycles:  776616809 heartbeat IPC: 0.36718 cumulative IPC: 0.37607 (Simulation time: 0 hr 9 min 56 sec) 
Heartbeat CPU  0 instructions:  353000000 cycles:  779437852 heartbeat IPC: 0.35448 cumulative IPC: 0.37598 (Simulation time: 0 hr 9 min 58 sec) 
Heartbeat CPU  0 instructions:  354000001 cycles:  782182715 heartbeat IPC: 0.36432 cumulative IPC: 0.37593 (Simulation time: 0 hr 10 min 0 sec) 
Heartbeat CPU  0 instructions:  355000002 cycles:  784898306 heartbeat IPC: 0.36824 cumulative IPC: 0.37590 (Simulation time: 0 hr 10 min 2 sec) 
Heartbeat CPU  0 instructions:  356000000 cycles:  787549600 heartbeat IPC: 0.37717 cumulative IPC: 0.37590 (Simulation time: 0 hr 10 min 4 sec) 
Heartbeat CPU  0 instructions:  357000000 cycles:  790295345 heartbeat IPC: 0.36420 cumulative IPC: 0.37586 (Simulation time: 0 hr 10 min 6 sec) 
Heartbeat CPU  0 instructions:  358000000 cycles:  792947997 heartbeat IPC: 0.37698 cumulative IPC: 0.37586 (Simulation time: 0 hr 10 min 8 sec) 
Heartbeat CPU  0 instructions:  359000001 cycles:  795636669 heartbeat IPC: 0.37193 cumulative IPC: 0.37585 (Simulation time: 0 hr 10 min 10 sec) 
Heartbeat CPU  0 instructions:  360000000 cycles:  798390813 heartbeat IPC: 0.36309 cumulative IPC: 0.37580 (Simulation time: 0 hr 10 min 12 sec) 
Heartbeat CPU  0 instructions:  361000002 cycles:  801048000 heartbeat IPC: 0.37634 cumulative IPC: 0.37580 (Simulation time: 0 hr 10 min 14 sec) 
Heartbeat CPU  0 instructions:  362000000 cycles:  803826160 heartbeat IPC: 0.35995 cumulative IPC: 0.37573 (Simulation time: 0 hr 10 min 17 sec) 
Heartbeat CPU  0 instructions:  363000000 cycles:  806587489 heartbeat IPC: 0.36214 cumulative IPC: 0.37568 (Simulation time: 0 hr 10 min 19 sec) 
Heartbeat CPU  0 instructions:  364000000 cycles:  809328349 heartbeat IPC: 0.36485 cumulative IPC: 0.37564 (Simulation time: 0 hr 10 min 21 sec) 
Heartbeat CPU  0 instructions:  365000001 cycles:  812080998 heartbeat IPC: 0.36329 cumulative IPC: 0.37559 (Simulation time: 0 hr 10 min 23 sec) 
Heartbeat CPU  0 instructions:  366000000 cycles:  814822143 heartbeat IPC: 0.36481 cumulative IPC: 0.37555 (Simulation time: 0 hr 10 min 25 sec) 
Heartbeat CPU  0 instructions:  367000000 cycles:  817376803 heartbeat IPC: 0.39144 cumulative IPC: 0.37561 (Simulation time: 0 hr 10 min 28 sec) 
Heartbeat CPU  0 instructions:  368000000 cycles:  819959850 heartbeat IPC: 0.38714 cumulative IPC: 0.37565 (Simulation time: 0 hr 10 min 30 sec) 
Heartbeat CPU  0 instructions:  369000000 cycles:  822040329 heartbeat IPC: 0.48066 cumulative IPC: 0.37595 (Simulation time: 0 hr 10 min 32 sec) 
Heartbeat CPU  0 instructions:  370000000 cycles:  824269118 heartbeat IPC: 0.44867 cumulative IPC: 0.37618 (Simulation time: 0 hr 10 min 33 sec) 
Heartbeat CPU  0 instructions:  371000000 cycles:  826919603 heartbeat IPC: 0.37729 cumulative IPC: 0.37618 (Simulation time: 0 hr 10 min 36 sec) 
Heartbeat CPU  0 instructions:  372000000 cycles:  829779764 heartbeat IPC: 0.34963 cumulative IPC: 0.37608 (Simulation time: 0 hr 10 min 38 sec) 
Heartbeat CPU  0 instructions:  373000000 cycles:  832500936 heartbeat IPC: 0.36749 cumulative IPC: 0.37605 (Simulation time: 0 hr 10 min 40 sec) 
Heartbeat CPU  0 instructions:  374000003 cycles:  835182915 heartbeat IPC: 0.37286 cumulative IPC: 0.37603 (Simulation time: 0 hr 10 min 42 sec) 
Heartbeat CPU  0 instructions:  375000000 cycles:  837834675 heartbeat IPC: 0.37711 cumulative IPC: 0.37604 (Simulation time: 0 hr 10 min 44 sec) 
Heartbeat CPU  0 instructions:  376000000 cycles:  840599103 heartbeat IPC: 0.36174 cumulative IPC: 0.37598 (Simulation time: 0 hr 10 min 47 sec) 
Heartbeat CPU  0 instructions:  377000003 cycles:  843265248 heartbeat IPC: 0.37507 cumulative IPC: 0.37598 (Simulation time: 0 hr 10 min 49 sec) 
Heartbeat CPU  0 instructions:  378000000 cycles:  845955312 heartbeat IPC: 0.37174 cumulative IPC: 0.37597 (Simulation time: 0 hr 10 min 51 sec) 
Heartbeat CPU  0 instructions:  379000002 cycles:  848734064 heartbeat IPC: 0.35987 cumulative IPC: 0.37591 (Simulation time: 0 hr 10 min 53 sec) 
Heartbeat CPU  0 instructions:  380000000 cycles:  851412298 heartbeat IPC: 0.37338 cumulative IPC: 0.37590 (Simulation time: 0 hr 10 min 55 sec) 
Heartbeat CPU  0 instructions:  381000000 cycles:  854213615 heartbeat IPC: 0.35697 cumulative IPC: 0.37583 (Simulation time: 0 hr 10 min 58 sec) 
Heartbeat CPU  0 instructions:  382000001 cycles:  856941925 heartbeat IPC: 0.36653 cumulative IPC: 0.37579 (Simulation time: 0 hr 11 min 0 sec) 
Heartbeat CPU  0 instructions:  383000002 cycles:  859608024 heartbeat IPC: 0.37508 cumulative IPC: 0.37579 (Simulation time: 0 hr 11 min 2 sec) 
Heartbeat CPU  0 instructions:  384000000 cycles:  861708791 heartbeat IPC: 0.47602 cumulative IPC: 0.37607 (Simulation time: 0 hr 11 min 4 sec) 
Heartbeat CPU  0 instructions:  385000000 cycles:  863820463 heartbeat IPC: 0.47356 cumulative IPC: 0.37634 (Simulation time: 0 hr 11 min 6 sec) 
Heartbeat CPU  0 instructions:  386000002 cycles:  866550486 heartbeat IPC: 0.36630 cumulative IPC: 0.37630 (Simulation time: 0 hr 11 min 8 sec) 
Heartbeat CPU  0 instructions:  387000001 cycles:  869180862 heartbeat IPC: 0.38017 cumulative IPC: 0.37632 (Simulation time: 0 hr 11 min 10 sec) 
Heartbeat CPU  0 instructions:  388000000 cycles:  871919684 heartbeat IPC: 0.36512 cumulative IPC: 0.37628 (Simulation time: 0 hr 11 min 12 sec) 
Heartbeat CPU  0 instructions:  389000000 cycles:  874619027 heartbeat IPC: 0.37046 cumulative IPC: 0.37626 (Simulation time: 0 hr 11 min 14 sec) 
Heartbeat CPU  0 instructions:  390000000 cycles:  877300543 heartbeat IPC: 0.37292 cumulative IPC: 0.37624 (Simulation time: 0 hr 11 min 16 sec) 
Heartbeat CPU  0 instructions:  391000001 cycles:  880005513 heartbeat IPC: 0.36969 cumulative IPC: 0.37622 (Simulation time: 0 hr 11 min 18 sec) 
Heartbeat CPU  0 instructions:  392000000 cycles:  882742171 heartbeat IPC: 0.36541 cumulative IPC: 0.37618 (Simulation time: 0 hr 11 min 20 sec) 
Heartbeat CPU  0 instructions:  393000000 cycles:  885465281 heartbeat IPC: 0.36723 cumulative IPC: 0.37615 (Simulation time: 0 hr 11 min 22 sec) 
Heartbeat CPU  0 instructions:  394000002 cycles:  888074932 heartbeat IPC: 0.38319 cumulative IPC: 0.37618 (Simulation time: 0 hr 11 min 24 sec) 
Heartbeat CPU  0 instructions:  395000002 cycles:  890859715 heartbeat IPC: 0.35909 cumulative IPC: 0.37612 (Simulation time: 0 hr 11 min 26 sec) 
Heartbeat CPU  0 instructions:  396000000 cycles:  893517793 heartbeat IPC: 0.37621 cumulative IPC: 0.37612 (Simulation time: 0 hr 11 min 28 sec) 
Heartbeat CPU  0 instructions:  397000000 cycles:  896242360 heartbeat IPC: 0.36703 cumulative IPC: 0.37608 (Simulation time: 0 hr 11 min 31 sec) 
Heartbeat CPU  0 instructions:  398000001 cycles:  899012331 heartbeat IPC: 0.36101 cumulative IPC: 0.37603 (Simulation time: 0 hr 11 min 33 sec) 
Heartbeat CPU  0 instructions:  399000002 cycles:  901765862 heartbeat IPC: 0.36317 cumulative IPC: 0.37599 (Simulation time: 0 hr 11 min 35 sec) 
Heartbeat CPU  0 instructions:  400000000 cycles:  904560403 heartbeat IPC: 0.35784 cumulative IPC: 0.37592 (Simulation time: 0 hr 11 min 37 sec) 
Heartbeat CPU  0 instructions:  401000000 cycles:  907294664 heartbeat IPC: 0.36573 cumulative IPC: 0.37589 (Simulation time: 0 hr 11 min 39 sec) 
Heartbeat CPU  0 instructions:  402000000 cycles:  910004554 heartbeat IPC: 0.36902 cumulative IPC: 0.37587 (Simulation time: 0 hr 11 min 41 sec) 
Heartbeat CPU  0 instructions:  403000001 cycles:  912526879 heartbeat IPC: 0.39646 cumulative IPC: 0.37593 (Simulation time: 0 hr 11 min 43 sec) 
Heartbeat CPU  0 instructions:  404000000 cycles:  915049199 heartbeat IPC: 0.39646 cumulative IPC: 0.37599 (Simulation time: 0 hr 11 min 45 sec) 
Heartbeat CPU  0 instructions:  405000000 cycles:  917190156 heartbeat IPC: 0.46708 cumulative IPC: 0.37623 (Simulation time: 0 hr 11 min 47 sec) 
Heartbeat CPU  0 instructions:  406000002 cycles:  919559935 heartbeat IPC: 0.42198 cumulative IPC: 0.37637 (Simulation time: 0 hr 11 min 49 sec) 
Heartbeat CPU  0 instructions:  407000000 cycles:  922181906 heartbeat IPC: 0.38139 cumulative IPC: 0.37638 (Simulation time: 0 hr 11 min 52 sec) 
Heartbeat CPU  0 instructions:  408000000 cycles:  924926885 heartbeat IPC: 0.36430 cumulative IPC: 0.37634 (Simulation time: 0 hr 11 min 54 sec) 
Heartbeat CPU  0 instructions:  409000002 cycles:  927803563 heartbeat IPC: 0.34762 cumulative IPC: 0.37624 (Simulation time: 0 hr 11 min 56 sec) 
Heartbeat CPU  0 instructions:  410000001 cycles:  930534372 heartbeat IPC: 0.36619 cumulative IPC: 0.37621 (Simulation time: 0 hr 11 min 58 sec) 
Heartbeat CPU  0 instructions:  411000000 cycles:  933244461 heartbeat IPC: 0.36899 cumulative IPC: 0.37619 (Simulation time: 0 hr 12 min 0 sec) 
Heartbeat CPU  0 instructions:  412000000 cycles:  935878282 heartbeat IPC: 0.37968 cumulative IPC: 0.37620 (Simulation time: 0 hr 12 min 2 sec) 
Heartbeat CPU  0 instructions:  413000000 cycles:  938646398 heartbeat IPC: 0.36126 cumulative IPC: 0.37615 (Simulation time: 0 hr 12 min 4 sec) 
Heartbeat CPU  0 instructions:  414000000 cycles:  941296521 heartbeat IPC: 0.37734 cumulative IPC: 0.37615 (Simulation time: 0 hr 12 min 6 sec) 
Heartbeat CPU  0 instructions:  415000000 cycles:  944004164 heartbeat IPC: 0.36932 cumulative IPC: 0.37613 (Simulation time: 0 hr 12 min 8 sec) 
Heartbeat CPU  0 instructions:  416000000 cycles:  946764641 heartbeat IPC: 0.36226 cumulative IPC: 0.37608 (Simulation time: 0 hr 12 min 10 sec) 
Heartbeat CPU  0 instructions:  417000003 cycles:  949405056 heartbeat IPC: 0.37873 cumulative IPC: 0.37609 (Simulation time: 0 hr 12 min 12 sec) 
Heartbeat CPU  0 instructions:  418000000 cycles:  952178279 heartbeat IPC: 0.36059 cumulative IPC: 0.37604 (Simulation time: 0 hr 12 min 14 sec) 
Heartbeat CPU  0 instructions:  419000000 cycles:  954974797 heartbeat IPC: 0.35759 cumulative IPC: 0.37598 (Simulation time: 0 hr 12 min 16 sec) 
Heartbeat CPU  0 instructions:  420000000 cycles:  957694368 heartbeat IPC: 0.36771 cumulative IPC: 0.37595 (Simulation time: 0 hr 12 min 18 sec) 
Heartbeat CPU  0 instructions:  421000000 cycles:  960481133 heartbeat IPC: 0.35884 cumulative IPC: 0.37590 (Simulation time: 0 hr 12 min 20 sec) 
Heartbeat CPU  0 instructions:  422000001 cycles:  963183777 heartbeat IPC: 0.37001 cumulative IPC: 0.37588 (Simulation time: 0 hr 12 min 22 sec) 
Heartbeat CPU  0 instructions:  423000000 cycles:  965677197 heartbeat IPC: 0.40106 cumulative IPC: 0.37595 (Simulation time: 0 hr 12 min 25 sec) 
Heartbeat CPU  0 instructions:  424000000 cycles:  967649178 heartbeat IPC: 0.50710 cumulative IPC: 0.37625 (Simulation time: 0 hr 12 min 26 sec) 
Heartbeat CPU  0 instructions:  425000001 cycles:  970071913 heartbeat IPC: 0.41276 cumulative IPC: 0.37636 (Simulation time: 0 hr 12 min 28 sec) 
Heartbeat CPU  0 instructions:  426000001 cycles:  972723475 heartbeat IPC: 0.37714 cumulative IPC: 0.37636 (Simulation time: 0 hr 12 min 31 sec) 
Heartbeat CPU  0 instructions:  427000000 cycles:  975440147 heartbeat IPC: 0.36810 cumulative IPC: 0.37633 (Simulation time: 0 hr 12 min 33 sec) 
Heartbeat CPU  0 instructions:  428000000 cycles:  978279813 heartbeat IPC: 0.35215 cumulative IPC: 0.37625 (Simulation time: 0 hr 12 min 35 sec) 
Heartbeat CPU  0 instructions:  429000001 cycles:  981070796 heartbeat IPC: 0.35830 cumulative IPC: 0.37620 (Simulation time: 0 hr 12 min 38 sec) 
Heartbeat CPU  0 instructions:  430000001 cycles:  983772615 heartbeat IPC: 0.37012 cumulative IPC: 0.37618 (Simulation time: 0 hr 12 min 40 sec) 
Heartbeat CPU  0 instructions:  431000000 cycles:  986455574 heartbeat IPC: 0.37272 cumulative IPC: 0.37617 (Simulation time: 0 hr 12 min 43 sec) 
Heartbeat CPU  0 instructions:  432000000 cycles:  989180831 heartbeat IPC: 0.36694 cumulative IPC: 0.37614 (Simulation time: 0 hr 12 min 45 sec) 
Heartbeat CPU  0 instructions:  433000001 cycles:  991946564 heartbeat IPC: 0.36157 cumulative IPC: 0.37609 (Simulation time: 0 hr 12 min 49 sec) 
Heartbeat CPU  0 instructions:  434000001 cycles:  994595764 heartbeat IPC: 0.37747 cumulative IPC: 0.37610 (Simulation time: 0 hr 12 min 51 sec) 
Heartbeat CPU  0 instructions:  435000000 cycles:  997305511 heartbeat IPC: 0.36904 cumulative IPC: 0.37608 (Simulation time: 0 hr 12 min 54 sec) 
Heartbeat CPU  0 instructions:  436000000 cycles: 1000061701 heartbeat IPC: 0.36282 cumulative IPC: 0.37603 (Simulation time: 0 hr 12 min 56 sec) 
Heartbeat CPU  0 instructions:  437000000 cycles: 1002718732 heartbeat IPC: 0.37636 cumulative IPC: 0.37604 (Simulation time: 0 hr 12 min 58 sec) 
Heartbeat CPU  0 instructions:  438000000 cycles: 1005497242 heartbeat IPC: 0.35991 cumulative IPC: 0.37599 (Simulation time: 0 hr 13 min 1 sec) 
Heartbeat CPU  0 instructions:  439000003 cycles: 1008264485 heartbeat IPC: 0.36137 cumulative IPC: 0.37594 (Simulation time: 0 hr 13 min 3 sec) 
Heartbeat CPU  0 instructions:  440000000 cycles: 1011001588 heartbeat IPC: 0.36535 cumulative IPC: 0.37591 (Simulation time: 0 hr 13 min 6 sec) 
Heartbeat CPU  0 instructions:  441000001 cycles: 1013750333 heartbeat IPC: 0.36380 cumulative IPC: 0.37587 (Simulation time: 0 hr 13 min 8 sec) 
Heartbeat CPU  0 instructions:  442000000 cycles: 1016462933 heartbeat IPC: 0.36865 cumulative IPC: 0.37585 (Simulation time: 0 hr 13 min 11 sec) 
Heartbeat CPU  0 instructions:  443000002 cycles: 1019021478 heartbeat IPC: 0.39085 cumulative IPC: 0.37589 (Simulation time: 0 hr 13 min 14 sec) 
Heartbeat CPU  0 instructions:  444000000 cycles: 1021661880 heartbeat IPC: 0.37873 cumulative IPC: 0.37590 (Simulation time: 0 hr 13 min 16 sec) 
Heartbeat CPU  0 instructions:  445000000 cycles: 1024450564 heartbeat IPC: 0.35859 cumulative IPC: 0.37585 (Simulation time: 0 hr 13 min 19 sec) 
Heartbeat CPU  0 instructions:  446000003 cycles: 1027200955 heartbeat IPC: 0.36359 cumulative IPC: 0.37581 (Simulation time: 0 hr 13 min 21 sec) 
Heartbeat CPU  0 instructions:  447000002 cycles: 1029941257 heartbeat IPC: 0.36492 cumulative IPC: 0.37578 (Simulation time: 0 hr 13 min 24 sec) 
Heartbeat CPU  0 instructions:  448000000 cycles: 1032348644 heartbeat IPC: 0.41539 cumulative IPC: 0.37588 (Simulation time: 0 hr 13 min 26 sec) 
Heartbeat CPU  0 instructions:  449000000 cycles: 1034459156 heartbeat IPC: 0.47382 cumulative IPC: 0.37610 (Simulation time: 0 hr 13 min 28 sec) 
Heartbeat CPU  0 instructions:  450000000 cycles: 1037123659 heartbeat IPC: 0.37530 cumulative IPC: 0.37610 (Simulation time: 0 hr 13 min 30 sec) 
Heartbeat CPU  0 instructions:  451000000 cycles: 1039838860 heartbeat IPC: 0.36830 cumulative IPC: 0.37608 (Simulation time: 0 hr 13 min 33 sec) 
Heartbeat CPU  0 instructions:  452000000 cycles: 1042531908 heartbeat IPC: 0.37133 cumulative IPC: 0.37607 (Simulation time: 0 hr 13 min 35 sec) 
Heartbeat CPU  0 instructions:  453000000 cycles: 1045193699 heartbeat IPC: 0.37569 cumulative IPC: 0.37606 (Simulation time: 0 hr 13 min 38 sec) 
Heartbeat CPU  0 instructions:  454000001 cycles: 1047919657 heartbeat IPC: 0.36684 cumulative IPC: 0.37604 (Simulation time: 0 hr 13 min 41 sec) 
Heartbeat CPU  0 instructions:  455000000 cycles: 1050646344 heartbeat IPC: 0.36675 cumulative IPC: 0.37601 (Simulation time: 0 hr 13 min 43 sec) 
Heartbeat CPU  0 instructions:  456000000 cycles: 1053301300 heartbeat IPC: 0.37665 cumulative IPC: 0.37601 (Simulation time: 0 hr 13 min 45 sec) 
Heartbeat CPU  0 instructions:  457000003 cycles: 1056047802 heartbeat IPC: 0.36410 cumulative IPC: 0.37598 (Simulation time: 0 hr 13 min 48 sec) 
Heartbeat CPU  0 instructions:  458000003 cycles: 1058753278 heartbeat IPC: 0.36962 cumulative IPC: 0.37596 (Simulation time: 0 hr 13 min 50 sec) 
Heartbeat CPU  0 instructions:  459000001 cycles: 1061549442 heartbeat IPC: 0.35763 cumulative IPC: 0.37591 (Simulation time: 0 hr 13 min 52 sec) 
Heartbeat CPU  0 instructions:  460000000 cycles: 1064273959 heartbeat IPC: 0.36704 cumulative IPC: 0.37588 (Simulation time: 0 hr 13 min 55 sec) 
Heartbeat CPU  0 instructions:  461000002 cycles: 1066970348 heartbeat IPC: 0.37087 cumulative IPC: 0.37587 (Simulation time: 0 hr 13 min 57 sec) 
Heartbeat CPU  0 instructions:  462000003 cycles: 1069582030 heartbeat IPC: 0.38290 cumulative IPC: 0.37589 (Simulation time: 0 hr 14 min 0 sec) 
Heartbeat CPU  0 instructions:  463000001 cycles: 1071568744 heartbeat IPC: 0.50334 cumulative IPC: 0.37615 (Simulation time: 0 hr 14 min 1 sec) 
Heartbeat CPU  0 instructions:  464000000 cycles: 1074473560 heartbeat IPC: 0.34426 cumulative IPC: 0.37605 (Simulation time: 0 hr 14 min 4 sec) 
Heartbeat CPU  0 instructions:  465000001 cycles: 1077285008 heartbeat IPC: 0.35569 cumulative IPC: 0.37599 (Simulation time: 0 hr 14 min 6 sec) 
Heartbeat CPU  0 instructions:  466000000 cycles: 1079727995 heartbeat IPC: 0.40933 cumulative IPC: 0.37608 (Simulation time: 0 hr 14 min 8 sec) 
Heartbeat CPU  0 instructions:  467000000 cycles: 1082360652 heartbeat IPC: 0.37984 cumulative IPC: 0.37609 (Simulation time: 0 hr 14 min 11 sec) 
Heartbeat CPU  0 instructions:  468000000 cycles: 1085072547 heartbeat IPC: 0.36875 cumulative IPC: 0.37607 (Simulation time: 0 hr 14 min 13 sec) 
Heartbeat CPU  0 instructions:  469000001 cycles: 1087765506 heartbeat IPC: 0.37134 cumulative IPC: 0.37605 (Simulation time: 0 hr 14 min 16 sec) 
Heartbeat CPU  0 instructions:  470000001 cycles: 1090463956 heartbeat IPC: 0.37058 cumulative IPC: 0.37604 (Simulation time: 0 hr 14 min 18 sec) 
Heartbeat CPU  0 instructions:  471000000 cycles: 1093085895 heartbeat IPC: 0.38140 cumulative IPC: 0.37605 (Simulation time: 0 hr 14 min 20 sec) 
Heartbeat CPU  0 instructions:  472000000 cycles: 1095853797 heartbeat IPC: 0.36128 cumulative IPC: 0.37601 (Simulation time: 0 hr 14 min 23 sec) 
Heartbeat CPU  0 instructions:  473000002 cycles: 1098517820 heartbeat IPC: 0.37537 cumulative IPC: 0.37601 (Simulation time: 0 hr 14 min 25 sec) 
Heartbeat CPU  0 instructions:  474000001 cycles: 1101229056 heartbeat IPC: 0.36884 cumulative IPC: 0.37599 (Simulation time: 0 hr 14 min 28 sec) 
Heartbeat CPU  0 instructions:  475000002 cycles: 1103988616 heartbeat IPC: 0.36238 cumulative IPC: 0.37595 (Simulation time: 0 hr 14 min 30 sec) 
Heartbeat CPU  0 instructions:  476000000 cycles: 1106692757 heartbeat IPC: 0.36980 cumulative IPC: 0.37594 (Simulation time: 0 hr 14 min 32 sec) 
Heartbeat CPU  0 instructions:  477000001 cycles: 1109473888 heartbeat IPC: 0.35957 cumulative IPC: 0.37589 (Simulation time: 0 hr 14 min 35 sec) 
Heartbeat CPU  0 instructions:  478000001 cycles: 1112178306 heartbeat IPC: 0.36977 cumulative IPC: 0.37588 (Simulation time: 0 hr 14 min 37 sec) 
Heartbeat CPU  0 instructions:  479000002 cycles: 1114860675 heartbeat IPC: 0.37281 cumulative IPC: 0.37587 (Simulation time: 0 hr 14 min 39 sec) 
Heartbeat CPU  0 instructions:  480000000 cycles: 1117641317 heartbeat IPC: 0.35963 cumulative IPC: 0.37582 (Simulation time: 0 hr 14 min 42 sec) 
Heartbeat CPU  0 instructions:  481000000 cycles: 1120440745 heartbeat IPC: 0.35722 cumulative IPC: 0.37577 (Simulation time: 0 hr 14 min 44 sec) 
Heartbeat CPU  0 instructions:  482000000 cycles: 1122395084 heartbeat IPC: 0.51168 cumulative IPC: 0.37603 (Simulation time: 0 hr 14 min 46 sec) 
Heartbeat CPU  0 instructions:  483000003 cycles: 1125202346 heartbeat IPC: 0.35622 cumulative IPC: 0.37598 (Simulation time: 0 hr 14 min 49 sec) 
Heartbeat CPU  0 instructions:  484000000 cycles: 1127963203 heartbeat IPC: 0.36221 cumulative IPC: 0.37594 (Simulation time: 0 hr 14 min 51 sec) 
Heartbeat CPU  0 instructions:  485000001 cycles: 1130798891 heartbeat IPC: 0.35265 cumulative IPC: 0.37588 (Simulation time: 0 hr 14 min 53 sec) 
Heartbeat CPU  0 instructions:  486000000 cycles: 1133504248 heartbeat IPC: 0.36964 cumulative IPC: 0.37586 (Simulation time: 0 hr 14 min 56 sec) 
Heartbeat CPU  0 instructions:  487000002 cycles: 1135891527 heartbeat IPC: 0.41889 cumulative IPC: 0.37596 (Simulation time: 0 hr 14 min 58 sec) 
Heartbeat CPU  0 instructions:  488000000 cycles: 1138708720 heartbeat IPC: 0.35496 cumulative IPC: 0.37590 (Simulation time: 0 hr 15 min 0 sec) 
Heartbeat CPU  0 instructions:  489000001 cycles: 1141509902 heartbeat IPC: 0.35699 cumulative IPC: 0.37585 (Simulation time: 0 hr 15 min 3 sec) 
Heartbeat CPU  0 instructions:  490000001 cycles: 1144150770 heartbeat IPC: 0.37866 cumulative IPC: 0.37586 (Simulation time: 0 hr 15 min 5 sec) 
Heartbeat CPU  0 instructions:  491000001 cycles: 1146843581 heartbeat IPC: 0.37136 cumulative IPC: 0.37585 (Simulation time: 0 hr 15 min 8 sec) 
Heartbeat CPU  0 instructions:  492000000 cycles: 1149520596 heartbeat IPC: 0.37355 cumulative IPC: 0.37584 (Simulation time: 0 hr 15 min 10 sec) 
Heartbeat CPU  0 instructions:  493000000 cycles: 1152289977 heartbeat IPC: 0.36109 cumulative IPC: 0.37580 (Simulation time: 0 hr 15 min 13 sec) 
Heartbeat CPU  0 instructions:  494000000 cycles: 1154994386 heartbeat IPC: 0.36977 cumulative IPC: 0.37579 (Simulation time: 0 hr 15 min 15 sec) 
Heartbeat CPU  0 instructions:  495000000 cycles: 1157801468 heartbeat IPC: 0.35624 cumulative IPC: 0.37573 (Simulation time: 0 hr 15 min 17 sec) 
Heartbeat CPU  0 instructions:  496000000 cycles: 1160514887 heartbeat IPC: 0.36854 cumulative IPC: 0.37572 (Simulation time: 0 hr 15 min 20 sec) 
Heartbeat CPU  0 instructions:  497000000 cycles: 1163204376 heartbeat IPC: 0.37182 cumulative IPC: 0.37571 (Simulation time: 0 hr 15 min 22 sec) 
Heartbeat CPU  0 instructions:  498000001 cycles: 1165451906 heartbeat IPC: 0.44493 cumulative IPC: 0.37585 (Simulation time: 0 hr 15 min 24 sec) 
Heartbeat CPU  0 instructions:  499000001 cycles: 1167820403 heartbeat IPC: 0.42221 cumulative IPC: 0.37596 (Simulation time: 0 hr 15 min 26 sec) 
Heartbeat CPU  0 instructions:  500000000 cycles: 1170217112 heartbeat IPC: 0.41724 cumulative IPC: 0.37605 (Simulation time: 0 hr 15 min 29 sec) 
Heartbeat CPU  0 instructions:  501000001 cycles: 1172894782 heartbeat IPC: 0.37346 cumulative IPC: 0.37604 (Simulation time: 0 hr 15 min 31 sec) 
Heartbeat CPU  0 instructions:  502000003 cycles: 1175698121 heartbeat IPC: 0.35672 cumulative IPC: 0.37599 (Simulation time: 0 hr 15 min 33 sec) 
Heartbeat CPU  0 instructions:  503000000 cycles: 1177466236 heartbeat IPC: 0.56557 cumulative IPC: 0.37630 (Simulation time: 0 hr 15 min 36 sec) 
Heartbeat CPU  0 instructions:  504000000 cycles: 1178497650 heartbeat IPC: 0.96954 cumulative IPC: 0.37688 (Simulation time: 0 hr 15 min 38 sec) 
Heartbeat CPU  0 instructions:  505000003 cycles: 1180031778 heartbeat IPC: 0.65184 cumulative IPC: 0.37727 (Simulation time: 0 hr 15 min 42 sec) 
Heartbeat CPU  0 instructions:  506000003 cycles: 1181526694 heartbeat IPC: 0.66893 cumulative IPC: 0.37767 (Simulation time: 0 hr 15 min 45 sec) 
Heartbeat CPU  0 instructions:  507000003 cycles: 1183140418 heartbeat IPC: 0.61968 cumulative IPC: 0.37804 (Simulation time: 0 hr 15 min 48 sec) 
Heartbeat CPU  0 instructions:  508000000 cycles: 1185902205 heartbeat IPC: 0.36208 cumulative IPC: 0.37800 (Simulation time: 0 hr 15 min 52 sec) 
Heartbeat CPU  0 instructions:  509000003 cycles: 1189242334 heartbeat IPC: 0.29939 cumulative IPC: 0.37775 (Simulation time: 0 hr 15 min 57 sec) 
Heartbeat CPU  0 instructions:  510000003 cycles: 1192739514 heartbeat IPC: 0.28594 cumulative IPC: 0.37746 (Simulation time: 0 hr 16 min 1 sec) 
Heartbeat CPU  0 instructions:  511000001 cycles: 1196809574 heartbeat IPC: 0.24570 cumulative IPC: 0.37697 (Simulation time: 0 hr 16 min 8 sec) 
Heartbeat CPU  0 instructions:  512000000 cycles: 1201898559 heartbeat IPC: 0.19650 cumulative IPC: 0.37613 (Simulation time: 0 hr 16 min 14 sec) 
Heartbeat CPU  0 instructions:  513000003 cycles: 1207119013 heartbeat IPC: 0.19155 cumulative IPC: 0.37525 (Simulation time: 0 hr 16 min 20 sec) 
Heartbeat CPU  0 instructions:  514000002 cycles: 1209880477 heartbeat IPC: 0.36213 cumulative IPC: 0.37522 (Simulation time: 0 hr 16 min 25 sec) 
Heartbeat CPU  0 instructions:  515000002 cycles: 1211616394 heartbeat IPC: 0.57606 cumulative IPC: 0.37553 (Simulation time: 0 hr 16 min 28 sec) 
Heartbeat CPU  0 instructions:  516000000 cycles: 1213331537 heartbeat IPC: 0.58304 cumulative IPC: 0.37586 (Simulation time: 0 hr 16 min 31 sec) 
Heartbeat CPU  0 instructions:  517000001 cycles: 1215070678 heartbeat IPC: 0.57500 cumulative IPC: 0.37617 (Simulation time: 0 hr 16 min 35 sec) 
Heartbeat CPU  0 instructions:  518000002 cycles: 1218499543 heartbeat IPC: 0.29164 cumulative IPC: 0.37591 (Simulation time: 0 hr 16 min 39 sec) 
Heartbeat CPU  0 instructions:  519000002 cycles: 1222091791 heartbeat IPC: 0.27838 cumulative IPC: 0.37559 (Simulation time: 0 hr 16 min 44 sec) 
Heartbeat CPU  0 instructions:  520000000 cycles: 1225578743 heartbeat IPC: 0.28678 cumulative IPC: 0.37532 (Simulation time: 0 hr 16 min 49 sec) 
Heartbeat CPU  0 instructions:  521000000 cycles: 1230194955 heartbeat IPC: 0.21663 cumulative IPC: 0.37467 (Simulation time: 0 hr 16 min 55 sec) 
Heartbeat CPU  0 instructions:  522000002 cycles: 1235436897 heartbeat IPC: 0.19077 cumulative IPC: 0.37381 (Simulation time: 0 hr 17 min 1 sec) 
Heartbeat CPU  0 instructions:  523000000 cycles: 1240043505 heartbeat IPC: 0.21708 cumulative IPC: 0.37317 (Simulation time: 0 hr 17 min 7 sec) 
Heartbeat CPU  0 instructions:  524000000 cycles: 1242339191 heartbeat IPC: 0.43560 cumulative IPC: 0.37330 (Simulation time: 0 hr 17 min 9 sec) 
Heartbeat CPU  0 instructions:  525000002 cycles: 1244911921 heartbeat IPC: 0.38869 cumulative IPC: 0.37334 (Simulation time: 0 hr 17 min 12 sec) 
Heartbeat CPU  0 instructions:  526000000 cycles: 1247227679 heartbeat IPC: 0.43182 cumulative IPC: 0.37345 (Simulation time: 0 hr 17 min 14 sec) 
Heartbeat CPU  0 instructions:  527000001 cycles: 1250008312 heartbeat IPC: 0.35963 cumulative IPC: 0.37342 (Simulation time: 0 hr 17 min 16 sec) 
Heartbeat CPU  0 instructions:  528000000 cycles: 1252277995 heartbeat IPC: 0.44059 cumulative IPC: 0.37355 (Simulation time: 0 hr 17 min 19 sec) 
Heartbeat CPU  0 instructions:  529000000 cycles: 1254238796 heartbeat IPC: 0.51000 cumulative IPC: 0.37379 (Simulation time: 0 hr 17 min 21 sec) 
Heartbeat CPU  0 instructions:  530000003 cycles: 1257060250 heartbeat IPC: 0.35443 cumulative IPC: 0.37374 (Simulation time: 0 hr 17 min 23 sec) 
Heartbeat CPU  0 instructions:  531000001 cycles: 1259480364 heartbeat IPC: 0.41320 cumulative IPC: 0.37382 (Simulation time: 0 hr 17 min 25 sec) 
Heartbeat CPU  0 instructions:  532000000 cycles: 1261945414 heartbeat IPC: 0.40567 cumulative IPC: 0.37389 (Simulation time: 0 hr 17 min 28 sec) 
Heartbeat CPU  0 instructions:  533000002 cycles: 1264697624 heartbeat IPC: 0.36335 cumulative IPC: 0.37387 (Simulation time: 0 hr 17 min 30 sec) 
Heartbeat CPU  0 instructions:  534000000 cycles: 1267063033 heartbeat IPC: 0.42276 cumulative IPC: 0.37396 (Simulation time: 0 hr 17 min 33 sec) 
Heartbeat CPU  0 instructions:  535000000 cycles: 1269160921 heartbeat IPC: 0.47667 cumulative IPC: 0.37415 (Simulation time: 0 hr 17 min 35 sec) 
Heartbeat CPU  0 instructions:  536000000 cycles: 1271741622 heartbeat IPC: 0.38749 cumulative IPC: 0.37418 (Simulation time: 0 hr 17 min 37 sec) 
Heartbeat CPU  0 instructions:  537000001 cycles: 1274122832 heartbeat IPC: 0.41995 cumulative IPC: 0.37427 (Simulation time: 0 hr 17 min 39 sec) 
Heartbeat CPU  0 instructions:  538000001 cycles: 1276655727 heartbeat IPC: 0.39481 cumulative IPC: 0.37432 (Simulation time: 0 hr 17 min 42 sec) 
Heartbeat CPU  0 instructions:  539000000 cycles: 1279165449 heartbeat IPC: 0.39845 cumulative IPC: 0.37437 (Simulation time: 0 hr 17 min 45 sec) 
Heartbeat CPU  0 instructions:  540000000 cycles: 1281823192 heartbeat IPC: 0.37626 cumulative IPC: 0.37437 (Simulation time: 0 hr 17 min 48 sec) 
Heartbeat CPU  0 instructions:  541000001 cycles: 1284315014 heartbeat IPC: 0.40131 cumulative IPC: 0.37443 (Simulation time: 0 hr 17 min 51 sec) 
Heartbeat CPU  0 instructions:  542000002 cycles: 1286665996 heartbeat IPC: 0.42535 cumulative IPC: 0.37453 (Simulation time: 0 hr 17 min 53 sec) 
Heartbeat CPU  0 instructions:  543000003 cycles: 1289256369 heartbeat IPC: 0.38605 cumulative IPC: 0.37456 (Simulation time: 0 hr 17 min 56 sec) 
Heartbeat CPU  0 instructions:  544000000 cycles: 1291811749 heartbeat IPC: 0.39133 cumulative IPC: 0.37459 (Simulation time: 0 hr 17 min 58 sec) 
Heartbeat CPU  0 instructions:  545000000 cycles: 1294020525 heartbeat IPC: 0.45274 cumulative IPC: 0.37474 (Simulation time: 0 hr 18 min 1 sec) 
Heartbeat CPU  0 instructions:  546000000 cycles: 1296338467 heartbeat IPC: 0.43142 cumulative IPC: 0.37485 (Simulation time: 0 hr 18 min 3 sec) 
Heartbeat CPU  0 instructions:  547000000 cycles: 1298794875 heartbeat IPC: 0.40710 cumulative IPC: 0.37492 (Simulation time: 0 hr 18 min 6 sec) 
Heartbeat CPU  0 instructions:  548000000 cycles: 1301461325 heartbeat IPC: 0.37503 cumulative IPC: 0.37492 (Simulation time: 0 hr 18 min 9 sec) 
Heartbeat CPU  0 instructions:  549000000 cycles: 1304056384 heartbeat IPC: 0.38535 cumulative IPC: 0.37494 (Simulation time: 0 hr 18 min 11 sec) 
Heartbeat CPU  0 instructions:  550000001 cycles: 1306667661 heartbeat IPC: 0.38295 cumulative IPC: 0.37496 (Simulation time: 0 hr 18 min 13 sec) 
Heartbeat CPU  0 instructions:  551000001 cycles: 1309318267 heartbeat IPC: 0.37727 cumulative IPC: 0.37496 (Simulation time: 0 hr 18 min 15 sec) 
Heartbeat CPU  0 instructions:  552000000 cycles: 1311960832 heartbeat IPC: 0.37842 cumulative IPC: 0.37497 (Simulation time: 0 hr 18 min 18 sec) 
Heartbeat CPU  0 instructions:  553000002 cycles: 1314530926 heartbeat IPC: 0.38909 cumulative IPC: 0.37500 (Simulation time: 0 hr 18 min 20 sec) 
Heartbeat CPU  0 instructions:  554000000 cycles: 1317195834 heartbeat IPC: 0.37525 cumulative IPC: 0.37500 (Simulation time: 0 hr 18 min 22 sec) 
Heartbeat CPU  0 instructions:  555000000 cycles: 1319955908 heartbeat IPC: 0.36231 cumulative IPC: 0.37497 (Simulation time: 0 hr 18 min 24 sec) 
Heartbeat CPU  0 instructions:  556000000 cycles: 1322474611 heartbeat IPC: 0.39703 cumulative IPC: 0.37502 (Simulation time: 0 hr 18 min 27 sec) 
Heartbeat CPU  0 instructions:  557000000 cycles: 1325209286 heartbeat IPC: 0.36567 cumulative IPC: 0.37499 (Simulation time: 0 hr 18 min 29 sec) 
Heartbeat CPU  0 instructions:  558000000 cycles: 1327844980 heartbeat IPC: 0.37941 cumulative IPC: 0.37500 (Simulation time: 0 hr 18 min 31 sec) 
Heartbeat CPU  0 instructions:  559000000 cycles: 1330585605 heartbeat IPC: 0.36488 cumulative IPC: 0.37498 (Simulation time: 0 hr 18 min 33 sec) 
Heartbeat CPU  0 instructions:  560000000 cycles: 1333311439 heartbeat IPC: 0.36686 cumulative IPC: 0.37496 (Simulation time: 0 hr 18 min 36 sec) 
Heartbeat CPU  0 instructions:  561000001 cycles: 1335965004 heartbeat IPC: 0.37685 cumulative IPC: 0.37497 (Simulation time: 0 hr 18 min 38 sec) 
Heartbeat CPU  0 instructions:  562000000 cycles: 1338645958 heartbeat IPC: 0.37300 cumulative IPC: 0.37496 (Simulation time: 0 hr 18 min 40 sec) 
Heartbeat CPU  0 instructions:  563000001 cycles: 1341425112 heartbeat IPC: 0.35982 cumulative IPC: 0.37493 (Simulation time: 0 hr 18 min 42 sec) 
Heartbeat CPU  0 instructions:  564000000 cycles: 1343924958 heartbeat IPC: 0.40002 cumulative IPC: 0.37498 (Simulation time: 0 hr 18 min 44 sec) 
Heartbeat CPU  0 instructions:  565000002 cycles: 1346638049 heartbeat IPC: 0.36858 cumulative IPC: 0.37497 (Simulation time: 0 hr 18 min 47 sec) 
Heartbeat CPU  0 instructions:  566000000 cycles: 1349252576 heartbeat IPC: 0.38248 cumulative IPC: 0.37498 (Simulation time: 0 hr 18 min 49 sec) 
Heartbeat CPU  0 instructions:  567000003 cycles: 1351914094 heartbeat IPC: 0.37573 cumulative IPC: 0.37498 (Simulation time: 0 hr 18 min 51 sec) 
Heartbeat CPU  0 instructions:  568000000 cycles: 1354594741 heartbeat IPC: 0.37304 cumulative IPC: 0.37498 (Simulation time: 0 hr 18 min 54 sec) 
Heartbeat CPU  0 instructions:  569000002 cycles: 1357400680 heartbeat IPC: 0.35639 cumulative IPC: 0.37494 (Simulation time: 0 hr 18 min 56 sec) 
Heartbeat CPU  0 instructions:  570000001 cycles: 1360134696 heartbeat IPC: 0.36576 cumulative IPC: 0.37492 (Simulation time: 0 hr 18 min 58 sec) 
Heartbeat CPU  0 instructions:  571000001 cycles: 1362855337 heartbeat IPC: 0.36756 cumulative IPC: 0.37490 (Simulation time: 0 hr 19 min 0 sec) 
Heartbeat CPU  0 instructions:  572000000 cycles: 1365647052 heartbeat IPC: 0.35820 cumulative IPC: 0.37486 (Simulation time: 0 hr 19 min 3 sec) 
Heartbeat CPU  0 instructions:  573000000 cycles: 1368391884 heartbeat IPC: 0.36432 cumulative IPC: 0.37484 (Simulation time: 0 hr 19 min 5 sec) 
Heartbeat CPU  0 instructions:  574000000 cycles: 1371169487 heartbeat IPC: 0.36002 cumulative IPC: 0.37481 (Simulation time: 0 hr 19 min 8 sec) 
Heartbeat CPU  0 instructions:  575000002 cycles: 1373945952 heartbeat IPC: 0.36017 cumulative IPC: 0.37478 (Simulation time: 0 hr 19 min 10 sec) 
Heartbeat CPU  0 instructions:  576000000 cycles: 1376646378 heartbeat IPC: 0.37031 cumulative IPC: 0.37477 (Simulation time: 0 hr 19 min 12 sec) 
Heartbeat CPU  0 instructions:  577000002 cycles: 1379375870 heartbeat IPC: 0.36637 cumulative IPC: 0.37475 (Simulation time: 0 hr 19 min 15 sec) 
Heartbeat CPU  0 instructions:  578000001 cycles: 1381965222 heartbeat IPC: 0.38620 cumulative IPC: 0.37477 (Simulation time: 0 hr 19 min 17 sec) 
Heartbeat CPU  0 instructions:  579000002 cycles: 1384650975 heartbeat IPC: 0.37234 cumulative IPC: 0.37477 (Simulation time: 0 hr 19 min 19 sec) 
Heartbeat CPU  0 instructions:  580000000 cycles: 1387333681 heartbeat IPC: 0.37276 cumulative IPC: 0.37476 (Simulation time: 0 hr 19 min 21 sec) 
Heartbeat CPU  0 instructions:  581000003 cycles: 1389996251 heartbeat IPC: 0.37558 cumulative IPC: 0.37477 (Simulation time: 0 hr 19 min 24 sec) 
Heartbeat CPU  0 instructions:  582000001 cycles: 1392760108 heartbeat IPC: 0.36181 cumulative IPC: 0.37474 (Simulation time: 0 hr 19 min 26 sec) 
Heartbeat CPU  0 instructions:  583000000 cycles: 1395413096 heartbeat IPC: 0.37693 cumulative IPC: 0.37474 (Simulation time: 0 hr 19 min 28 sec) 
Heartbeat CPU  0 instructions:  584000000 cycles: 1398037517 heartbeat IPC: 0.38104 cumulative IPC: 0.37475 (Simulation time: 0 hr 19 min 31 sec) 
Heartbeat CPU  0 instructions:  585000002 cycles: 1400765226 heartbeat IPC: 0.36661 cumulative IPC: 0.37474 (Simulation time: 0 hr 19 min 33 sec) 
Heartbeat CPU  0 instructions:  586000000 cycles: 1403459246 heartbeat IPC: 0.37119 cumulative IPC: 0.37473 (Simulation time: 0 hr 19 min 36 sec) 
Heartbeat CPU  0 instructions:  587000000 cycles: 1405971520 heartbeat IPC: 0.39805 cumulative IPC: 0.37478 (Simulation time: 0 hr 19 min 38 sec) 
Heartbeat CPU  0 instructions:  588000000 cycles: 1408615264 heartbeat IPC: 0.37825 cumulative IPC: 0.37478 (Simulation time: 0 hr 19 min 41 sec) 
Heartbeat CPU  0 instructions:  589000002 cycles: 1411170690 heartbeat IPC: 0.39132 cumulative IPC: 0.37481 (Simulation time: 0 hr 19 min 43 sec) 
Heartbeat CPU  0 instructions:  590000000 cycles: 1413783215 heartbeat IPC: 0.38277 cumulative IPC: 0.37483 (Simulation time: 0 hr 19 min 45 sec) 
Heartbeat CPU  0 instructions:  591000000 cycles: 1416248003 heartbeat IPC: 0.40571 cumulative IPC: 0.37489 (Simulation time: 0 hr 19 min 47 sec) 
Heartbeat CPU  0 instructions:  592000000 cycles: 1418956805 heartbeat IPC: 0.36917 cumulative IPC: 0.37488 (Simulation time: 0 hr 19 min 49 sec) 
Heartbeat CPU  0 instructions:  593000001 cycles: 1421634772 heartbeat IPC: 0.37342 cumulative IPC: 0.37487 (Simulation time: 0 hr 19 min 52 sec) 
Heartbeat CPU  0 instructions:  594000000 cycles: 1424217956 heartbeat IPC: 0.38712 cumulative IPC: 0.37490 (Simulation time: 0 hr 19 min 54 sec) 
Heartbeat CPU  0 instructions:  595000002 cycles: 1426946180 heartbeat IPC: 0.36654 cumulative IPC: 0.37488 (Simulation time: 0 hr 19 min 56 sec) 
Heartbeat CPU  0 instructions:  596000000 cycles: 1429308088 heartbeat IPC: 0.42339 cumulative IPC: 0.37497 (Simulation time: 0 hr 19 min 58 sec) 
Heartbeat CPU  0 instructions:  597000000 cycles: 1431726835 heartbeat IPC: 0.41344 cumulative IPC: 0.37504 (Simulation time: 0 hr 20 min 0 sec) 
Heartbeat CPU  0 instructions:  598000000 cycles: 1434208167 heartbeat IPC: 0.40301 cumulative IPC: 0.37509 (Simulation time: 0 hr 20 min 3 sec) 
Heartbeat CPU  0 instructions:  599000001 cycles: 1436887082 heartbeat IPC: 0.37329 cumulative IPC: 0.37509 (Simulation time: 0 hr 20 min 5 sec) 
Heartbeat CPU  0 instructions:  600000000 cycles: 1439484573 heartbeat IPC: 0.38499 cumulative IPC: 0.37511 (Simulation time: 0 hr 20 min 7 sec) 
Finished CPU 0 instructions: 500000000 cycles: 1332958813 cumulative IPC: 0.37511 (Simulation time: 0 hr 20 min 7 sec) 

ChampSim completed all CPUs

[ROI Statistics]
Core_0_instructions 500000000
Core_0_cycles 1332958813
Core_0_IPC 0.37511

Core_0_branch_prediction_accuracy 85.44512
Core_0_branch_MPKI 23.17008
Core_0_average_ROB_occupancy_at_mispredict 40.38833

Core_0_L1D_total_access 157918875
Core_0_L1D_total_hit 155851442
Core_0_L1D_total_miss 2067433
Core_0_L1D_loads 90591072
Core_0_L1D_load_hit 89878441
Core_0_L1D_load_miss 712631
Core_0_L1D_RFOs 67327803
Core_0_L1D_RFO_hit 65973001
Core_0_L1D_RFO_miss 1354802
Core_0_L1D_prefetches 0
Core_0_L1D_prefetch_hit 0
Core_0_L1D_prefetch_miss 0
Core_0_L1D_writebacks 0
Core_0_L1D_writeback_hit 0
Core_0_L1D_writeback_miss 0
Core_0_L1D_prefetch_requested 0
Core_0_L1D_prefetch_dropped 0
Core_0_L1D_prefetch_issued 0
Core_0_L1D_prefetch_filled 0
Core_0_L1D_prefetch_useful 0
Core_0_L1D_prefetch_useless 0
Core_0_L1D_prefetch_late 0
Core_0_L1D_average_miss_latency 505.07972

Core_0_L1D_rq_access 127065978
Core_0_L1D_rq_forward 0
Core_0_L1D_rq_merged 36339153
Core_0_L1D_rq_to_cache 90726238
Core_0_L1D_rq_full 0

Core_0_L1D_wq_access 71549319
Core_0_L1D_wq_forward 587
Core_0_L1D_wq_merged 408711
Core_0_L1D_wq_to_cache 71140608
Core_0_L1D_wq_full 52717554

Core_0_L1D_pq_access 0
Core_0_L1D_pq_forward 0
Core_0_L1D_pq_merged 0
Core_0_L1D_pq_to_cache 0
Core_0_L1D_pq_full 0

Core_0_L1D_acc_epochs 1400172
Core_0_L1D_acc_level_0 1400172
Core_0_L1D_acc_level_1 0
Core_0_L1D_acc_level_2 0
Core_0_L1D_acc_level_3 0
Core_0_L1D_acc_level_4 0
Core_0_L1D_acc_level_5 0
Core_0_L1D_acc_level_6 0
Core_0_L1D_acc_level_7 0
Core_0_L1D_acc_level_8 0
Core_0_L1D_acc_level_9 0

Core_0_L1I_total_access 98390539
Core_0_L1I_total_hit 96770976
Core_0_L1I_total_miss 1619563
Core_0_L1I_loads 98390539
Core_0_L1I_load_hit 96770976
Core_0_L1I_load_miss 1619563
Core_0_L1I_RFOs 0
Core_0_L1I_RFO_hit 0
Core_0_L1I_RFO_miss 0
Core_0_L1I_prefetches 0
Core_0_L1I_prefetch_hit 0
Core_0_L1I_prefetch_miss 0
Core_0_L1I_writebacks 0
Core_0_L1I_writeback_hit 0
Core_0_L1I_writeback_miss 0
Core_0_L1I_prefetch_requested 0
Core_0_L1I_prefetch_dropped 0
Core_0_L1I_prefetch_issued 0
Core_0_L1I_prefetch_filled 0
Core_0_L1I_prefetch_useful 0
Core_0_L1I_prefetch_useless 0
Core_0_L1I_prefetch_late 0
Core_0_L1I_average_miss_latency 12.61940

Core_0_L1I_rq_access 499999979
Core_0_L1I_rq_forward 0
Core_0_L1I_rq_merged 401028543
Core_0_L1I_rq_to_cache 98971436
Core_0_L1I_rq_full 0

Core_0_L1I_wq_access 0
Core_0_L1I_wq_forward 0
Core_0_L1I_wq_merged 0
Core_0_L1I_wq_to_cache 0
Core_0_L1I_wq_full 0

Core_0_L1I_pq_access 0
Core_0_L1I_pq_forward 0
Core_0_L1I_pq_merged 0
Core_0_L1I_pq_to_cache 0
Core_0_L1I_pq_full 0

Core_0_L1I_acc_epochs 1400172
Core_0_L1I_acc_level_0 1400172
Core_0_L1I_acc_level_1 0
Core_0_L1I_acc_level_2 0
Core_0_L1I_acc_level_3 0
Core_0_L1I_acc_level_4 0
Core_0_L1I_acc_level_5 0
Core_0_L1I_acc_level_6 0
Core_0_L1I_acc_level_7 0
Core_0_L1I_acc_level_8 0
Core_0_L1I_acc_level_9 0

Core_0_L2C_total_access 5822836
Core_0_L2C_total_hit 4651989
Core_0_L2C_total_miss 1170847
Core_0_L2C_loads 2332188
Core_0_L2C_load_hit 1983969
Core_0_L2C_load_miss 348219
Core_0_L2C_RFOs 1354775
Core_0_L2C_RFO_hit 539783
Core_0_L2C_RFO_miss 814992
Core_0_L2C_prefetches 540601
Core_0_L2C_prefetch_hit 535051
Core_0_L2C_prefetch_miss 5550
Core_0_L2C_writebacks 1595272
Core_0_L2C_writeback_hit 1593186
Core_0_L2C_writeback_miss 2086
Core_0_L2C_prefetch_requested 1343679
Core_0_L2C_prefetch_dropped 0
Core_0_L2C_prefetch_issued 1343679
Core_0_L2C_prefetch_filled 15988
Core_0_L2C_prefetch_useful 15817
Core_0_L2C_prefetch_useless 171
Core_0_L2C_prefetch_late 2713
Core_0_L2C_average_miss_latency 868.86922

Core_0_L2C_rq_access 3686996
Core_0_L2C_rq_forward 0
Core_0_L2C_rq_merged 0
Core_0_L2C_rq_to_cache 3686963
Core_0_L2C_rq_full 0

Core_0_L2C_wq_access 1595272
Core_0_L2C_wq_forward 33
Core_0_L2C_wq_merged 0
Core_0_L2C_wq_to_cache 1595272
Core_0_L2C_wq_full 0

Core_0_L2C_pq_access 1343679
Core_0_L2C_pq_forward 0
Core_0_L2C_pq_merged 235908
Core_0_L2C_pq_to_cache 1107771
Core_0_L2C_pq_full 0

Core_0_L2C_acc_epochs 1400172
Core_0_L2C_acc_level_0 1398135
Core_0_L2C_acc_level_1 253
Core_0_L2C_acc_level_2 224
Core_0_L2C_acc_level_3 82
Core_0_L2C_acc_level_4 110
Core_0_L2C_acc_level_5 220
Core_0_L2C_acc_level_6 52
Core_0_L2C_acc_level_7 144
Core_0_L2C_acc_level_8 148
Core_0_L2C_acc_level_9 804

Core_0_LLC_total_access 2361261
Core_0_LLC_total_hit 732748
Core_0_LLC_total_miss 1628513
Core_0_LLC_loads 345507
Core_0_LLC_load_hit 213868
Core_0_LLC_load_miss 131639
Core_0_LLC_RFOs 814992
Core_0_LLC_RFO_hit 65372
Core_0_LLC_RFO_miss 749620
Core_0_LLC_prefetches 231095
Core_0_LLC_prefetch_hit 173580
Core_0_LLC_prefetch_miss 57515
Core_0_LLC_writebacks 969667
Core_0_LLC_writeback_hit 279928
Core_0_LLC_writeback_miss 689739
Core_0_LLC_prefetch_requested 0
Core_0_LLC_prefetch_dropped 0
Core_0_LLC_prefetch_issued 0
Core_0_LLC_prefetch_filled 79898
Core_0_LLC_prefetch_useful 49363
Core_0_LLC_prefetch_useless 27202
Core_0_LLC_prefetch_late 635
Core_0_LLC_average_miss_latency 609.50945

Core_0_LLC_rq_access 1160499
Core_0_LLC_rq_forward 0
Core_0_LLC_rq_merged 0
Core_0_LLC_rq_to_cache 1160499
Core_0_LLC_rq_full 0

Core_0_LLC_wq_access 969667
Core_0_LLC_wq_forward 1
Core_0_LLC_wq_merged 0
Core_0_LLC_wq_to_cache 969667
Core_0_LLC_wq_full 0

Core_0_LLC_pq_access 385772
Core_0_LLC_pq_forward 0
Core_0_LLC_pq_merged 5271
Core_0_LLC_pq_to_cache 380500
Core_0_LLC_pq_full 0

Core_0_LLC_acc_epochs 1405747
Core_0_LLC_acc_level_0 1332263
Core_0_LLC_acc_level_1 26120
Core_0_LLC_acc_level_2 24301
Core_0_LLC_acc_level_3 1240
Core_0_LLC_acc_level_4 170
Core_0_LLC_acc_level_5 19572
Core_0_LLC_acc_level_6 322
Core_0_LLC_acc_level_7 380
Core_0_LLC_acc_level_8 84
Core_0_LLC_acc_level_9 1295

Core_0_major_page_fault 0
Core_0_minor_page_fault 6504

spp.pref.total 1343679
spp.pref.at_L2 52414
spp.pref.at_LLC 1291265

spp.depth.max 11
spp.depth.min 0
spp.depth.avg 0

spp.breadth.max 2
spp.breadth.min 0
spp.breadth.avg 0

delta_1 1453785
delta_2 21791
delta_-1 14516
delta_7 13860
delta_4 13374
delta_-2 9527
delta_3 7992
delta_8 7302
delta_-7 330
delta_25 194
delta_13 184
delta_9 125
delta_-13 124
delta_5 122
delta_-24 118
delta_-6 111
delta_-4 104
delta_6 77
delta_-3 47
delta_-34 38
delta_-5 32
delta_-25 22
delta_14 14
delta_-14 10
delta_35 10
delta_12 8
delta_33 8
delta_-26 4
delta_34 4
delta_-11 3
delta_-12 2
delta_24 1
delta_-9 1
delta_-38 1

depth_1_delta_1 824110
depth_1_delta_2 17555
depth_1_delta_7 13368
depth_1_delta_4 11392
depth_1_delta_-1 11307
depth_1_delta_-2 9055
depth_1_delta_3 7884
depth_1_delta_8 7113
depth_1_delta_-7 290
depth_1_delta_25 186
depth_1_delta_13 151
depth_1_delta_9 122
depth_1_delta_5 122
depth_1_delta_-6 111
depth_1_delta_-24 111
depth_1_delta_-13 108
depth_1_delta_-4 95
depth_1_delta_6 75
depth_1_delta_-34 35
depth_1_delta_-3 33
depth_1_delta_-25 22
depth_1_delta_-5 19
depth_1_delta_14 14
depth_1_delta_-14 10
depth_1_delta_35 10
depth_1_delta_12 8
depth_1_delta_33 8
depth_1_delta_-26 4
depth_1_delta_34 4
depth_1_delta_-11 3
depth_1_delta_-12 2
depth_1_delta_24 1
depth_1_delta_-9 1
depth_1_delta_-38 1
depth_2_delta_1 124798
depth_2_delta_2 3755
depth_2_delta_-1 2118
depth_2_delta_4 1975
depth_2_delta_7 462
depth_2_delta_-2 461
depth_2_delta_8 189
depth_2_delta_3 107
depth_2_delta_13 32
depth_2_delta_-13 16
depth_2_delta_-7 16
depth_2_delta_-3 10
depth_2_delta_-5 9
depth_2_delta_-4 8
depth_2_delta_25 8
depth_2_delta_-24 7
depth_2_delta_9 3
depth_2_delta_-34 3
depth_2_delta_6 2
depth_3_delta_1 100394
depth_3_delta_-1 702
depth_3_delta_2 402
depth_3_delta_7 15
depth_3_delta_-2 11
depth_3_delta_-7 10
depth_3_delta_4 7
depth_3_delta_-5 4
depth_3_delta_-3 4
depth_3_delta_-4 1
depth_3_delta_3 1
depth_3_delta_13 1
depth_4_delta_1 93565
depth_4_delta_-1 214
depth_4_delta_2 70
depth_4_delta_-7 8
depth_4_delta_7 7
depth_5_delta_1 89791
depth_5_delta_-1 96
depth_5_delta_2 9
depth_5_delta_7 5
depth_5_delta_-7 4
depth_6_delta_1 75553
depth_6_delta_-1 34
depth_6_delta_-7 2
depth_6_delta_7 2
depth_7_delta_1 62069
depth_7_delta_-1 24
depth_7_delta_7 1
depth_8_delta_1 48012
depth_8_delta_-1 13
depth_9_delta_1 27837
depth_9_delta_-1 8
depth_10_delta_1 7643
depth_11_delta_1 13

Channel_0_RQ_row_buffer_hit 170774
Channel_0_RQ_row_buffer_miss 767999
Channel_0_WQ_row_buffer_hit 129643
Channel_0_WQ_row_buffer_miss 734889
Channel_0_WQ_full 0
Channel_0_dbus_congested 1475512

avg_congested_cycle 24

DRAM_bw_pochs 5622987
DRAM_bw_level_0 5411520
DRAM_bw_level_1 79405
DRAM_bw_level_2 59028
DRAM_bw_level_3 73034
