*************************************************
   ChampSim Multicore Out-of-Order Simulator
   Last compiled: Dec 11 2024 17:59:53
*************************************************
parsing config file: /home/functionmain/桌面/Pythia/config/bingo.ini

trace_0 /home/functionmain/桌面/Pythia/traces/445.gobmk-30B.champsimtrace.xz
adding L2C_PREFETCHER: Bingo
Initialize SHIP state
warmup_instructions 100000000
simulation_instructions 500000000
champsim_seed 165
measure_ipc 0
measure_ipc_epoch 1000
measure_dram_bw 1
measure_dram_bw_epoch 256
measure_cache_acc 1
measure_cache_acc_epoch 1024
l1d_perfect 0
l2c_perfect 0
llc_perfect 0
l1d_semi_perfect 0
l2c_semi_perfect 0
llc_semi_perfect 0
semi_perfect_cache_page_buffer_size 64

num_cpus 1
cpu_freq 4000
dram_io_freq 300
page_size 4096
block_size 64
max_read_per_cycle 8
max_fill_per_cycle 1
dram_channels 1
log2_dram_channels 0
dram_ranks 1
dram_banks 8
dram_rows 65536
dram_columns 128
dram_row_size 8
dram_size 4096
dram_pages 1048576

fetch_width 6
decode_width 6
exec_width 4
lq_width 2
sq_width 2
retire_width 4
scheduler_size 128
branch_mispredict_penalty 20
rob_size 256
lq_size 72
sq_size 56
num_instr_destinations_sparc 4
num_instr_destinations 2
num_instr_sources 4

itlb_set 16
itlb_way 8
itlb_rq_size 16
itlb_wq_size 16
itlb_pq_size 0
itlb_mshr_size 8
itlb_latency 1

dtlb_set 16
dtlb_way 4
dtlb_rq_size 16
dtlb_wq_size 16
dtlb_pq_size 0
dtlb_mshr_size 8
dtlb_latency 1

stlb_set 128
stlb_way 12
stlb_rq_size 32
stlb_wq_size 32
stlb_pq_size 0
stlb_mshr_size 16
stlb_latency 8

l1i_size 32
l1i_set 64
l1i_way 8
l1i_rq_size 64
l1i_wq_size 64
l1i_pq_size 8
l1i_mshr_size 8
l1i_latency 1

l1d_size 32
l1d_set 64
l1d_way 8
l1d_rq_size 64
l1d_wq_size 64
l1d_pq_size 8
l1d_mshr_size 16
l1d_latency 4

l2c_size 256
l2c_set 512
l2c_way 8
l2c_rq_size 32
l2c_wq_size 32
l2c_pq_size 32
l2c_mshr_size 32
l2c_latency 10

llc_size 2048
llc_set 2048
llc_way 16
llc_rq_size 32
llc_wq_size 32
llc_pq_size 32
llc_mshr_size 64
llc_latency 20

dram_channel_width 8
dram_wq_size 64
dram_rq_size 64
tRP 15
tRCD 15
tCAS 12.5
dram_dbus_turn_around_time 30
dram_write_high_wm 56
dram_write_low_wm 48
min_dram_writes_per_switch 16
dram_mtps 300
dram_dbus_return_time 106

bingo_region_size 2048
bingo_pattern_len 32
bingo_pc_width 16
bingo_min_addr_width 5
bingo_max_addr_width 16
bingo_ft_size 64
bingo_at_size 128
bingo_pht_size 4096
bingo_pht_ways 16
bingo_pf_streamer_size 128
bingo_debug_level 0
bingo_l1d_thresh 1.01
bingo_l2c_thresh 0.8
bingo_llc_thresh 0.05
bingo_pc_address_fill_level L2


Heartbeat CPU  0 instructions:    1000000 cycles:     861996 heartbeat IPC: 1.16010 cumulative IPC: 1.16010 (Simulation time: 0 hr 0 min 1 sec) 
Heartbeat CPU  0 instructions:    2000000 cycles:    1865282 heartbeat IPC: 0.99672 cumulative IPC: 1.07222 (Simulation time: 0 hr 0 min 2 sec) 
Heartbeat CPU  0 instructions:    3000001 cycles:    2991131 heartbeat IPC: 0.88822 cumulative IPC: 1.00297 (Simulation time: 0 hr 0 min 4 sec) 
Heartbeat CPU  0 instructions:    4000000 cycles:    4091971 heartbeat IPC: 0.90840 cumulative IPC: 0.97752 (Simulation time: 0 hr 0 min 5 sec) 
Heartbeat CPU  0 instructions:    5000001 cycles:    5174191 heartbeat IPC: 0.92403 cumulative IPC: 0.96633 (Simulation time: 0 hr 0 min 7 sec) 
Heartbeat CPU  0 instructions:    6000000 cycles:    6296948 heartbeat IPC: 0.89066 cumulative IPC: 0.95284 (Simulation time: 0 hr 0 min 8 sec) 
Heartbeat CPU  0 instructions:    7000001 cycles:    7364161 heartbeat IPC: 0.93702 cumulative IPC: 0.95055 (Simulation time: 0 hr 0 min 10 sec) 
Heartbeat CPU  0 instructions:    8000000 cycles:    8566901 heartbeat IPC: 0.83143 cumulative IPC: 0.93383 (Simulation time: 0 hr 0 min 11 sec) 
Heartbeat CPU  0 instructions:    9000000 cycles:    9686295 heartbeat IPC: 0.89334 cumulative IPC: 0.92915 (Simulation time: 0 hr 0 min 13 sec) 
Heartbeat CPU  0 instructions:   10000003 cycles:   10816029 heartbeat IPC: 0.88517 cumulative IPC: 0.92455 (Simulation time: 0 hr 0 min 14 sec) 
Heartbeat CPU  0 instructions:   11000000 cycles:   11873768 heartbeat IPC: 0.94541 cumulative IPC: 0.92641 (Simulation time: 0 hr 0 min 16 sec) 
Heartbeat CPU  0 instructions:   12000000 cycles:   13017867 heartbeat IPC: 0.87405 cumulative IPC: 0.92181 (Simulation time: 0 hr 0 min 17 sec) 
Heartbeat CPU  0 instructions:   13000001 cycles:   14157291 heartbeat IPC: 0.87764 cumulative IPC: 0.91825 (Simulation time: 0 hr 0 min 19 sec) 
Heartbeat CPU  0 instructions:   14000000 cycles:   15083986 heartbeat IPC: 1.07910 cumulative IPC: 0.92814 (Simulation time: 0 hr 0 min 20 sec) 
Heartbeat CPU  0 instructions:   15000001 cycles:   16047848 heartbeat IPC: 1.03749 cumulative IPC: 0.93470 (Simulation time: 0 hr 0 min 21 sec) 
Heartbeat CPU  0 instructions:   16000000 cycles:   17176785 heartbeat IPC: 0.88579 cumulative IPC: 0.93149 (Simulation time: 0 hr 0 min 23 sec) 
Heartbeat CPU  0 instructions:   17000000 cycles:   18272241 heartbeat IPC: 0.91286 cumulative IPC: 0.93037 (Simulation time: 0 hr 0 min 24 sec) 
Heartbeat CPU  0 instructions:   18000003 cycles:   19388636 heartbeat IPC: 0.89574 cumulative IPC: 0.92838 (Simulation time: 0 hr 0 min 26 sec) 
Heartbeat CPU  0 instructions:   19000001 cycles:   20469770 heartbeat IPC: 0.92495 cumulative IPC: 0.92820 (Simulation time: 0 hr 0 min 27 sec) 
Heartbeat CPU  0 instructions:   20000000 cycles:   21561528 heartbeat IPC: 0.91595 cumulative IPC: 0.92758 (Simulation time: 0 hr 0 min 29 sec) 
Heartbeat CPU  0 instructions:   21000000 cycles:   22753945 heartbeat IPC: 0.83863 cumulative IPC: 0.92292 (Simulation time: 0 hr 0 min 30 sec) 
Heartbeat CPU  0 instructions:   22000003 cycles:   23881250 heartbeat IPC: 0.88707 cumulative IPC: 0.92122 (Simulation time: 0 hr 0 min 32 sec) 
Heartbeat CPU  0 instructions:   23000001 cycles:   24931321 heartbeat IPC: 0.95231 cumulative IPC: 0.92253 (Simulation time: 0 hr 0 min 33 sec) 
Heartbeat CPU  0 instructions:   24000000 cycles:   26048077 heartbeat IPC: 0.89545 cumulative IPC: 0.92137 (Simulation time: 0 hr 0 min 35 sec) 
Heartbeat CPU  0 instructions:   25000000 cycles:   26927319 heartbeat IPC: 1.13734 cumulative IPC: 0.92843 (Simulation time: 0 hr 0 min 36 sec) 
Heartbeat CPU  0 instructions:   26000000 cycles:   27897198 heartbeat IPC: 1.03106 cumulative IPC: 0.93199 (Simulation time: 0 hr 0 min 38 sec) 
Heartbeat CPU  0 instructions:   27000002 cycles:   28999784 heartbeat IPC: 0.90696 cumulative IPC: 0.93104 (Simulation time: 0 hr 0 min 39 sec) 
Heartbeat CPU  0 instructions:   28000000 cycles:   30120406 heartbeat IPC: 0.89236 cumulative IPC: 0.92960 (Simulation time: 0 hr 0 min 40 sec) 
Heartbeat CPU  0 instructions:   29000003 cycles:   31186383 heartbeat IPC: 0.93811 cumulative IPC: 0.92989 (Simulation time: 0 hr 0 min 42 sec) 
Heartbeat CPU  0 instructions:   30000002 cycles:   32278854 heartbeat IPC: 0.91536 cumulative IPC: 0.92940 (Simulation time: 0 hr 0 min 43 sec) 
Heartbeat CPU  0 instructions:   31000003 cycles:   33381194 heartbeat IPC: 0.90716 cumulative IPC: 0.92867 (Simulation time: 0 hr 0 min 45 sec) 
Heartbeat CPU  0 instructions:   32000000 cycles:   34480846 heartbeat IPC: 0.90938 cumulative IPC: 0.92805 (Simulation time: 0 hr 0 min 46 sec) 
Heartbeat CPU  0 instructions:   33000001 cycles:   35468056 heartbeat IPC: 1.01296 cumulative IPC: 0.93041 (Simulation time: 0 hr 0 min 48 sec) 
Heartbeat CPU  0 instructions:   34000001 cycles:   36605876 heartbeat IPC: 0.87887 cumulative IPC: 0.92881 (Simulation time: 0 hr 0 min 49 sec) 
Heartbeat CPU  0 instructions:   35000003 cycles:   37678083 heartbeat IPC: 0.93266 cumulative IPC: 0.92892 (Simulation time: 0 hr 0 min 51 sec) 
Heartbeat CPU  0 instructions:   36000000 cycles:   38869642 heartbeat IPC: 0.83923 cumulative IPC: 0.92617 (Simulation time: 0 hr 0 min 52 sec) 
Heartbeat CPU  0 instructions:   37000002 cycles:   39985602 heartbeat IPC: 0.89609 cumulative IPC: 0.92533 (Simulation time: 0 hr 0 min 54 sec) 
Heartbeat CPU  0 instructions:   38000000 cycles:   41035516 heartbeat IPC: 0.95246 cumulative IPC: 0.92603 (Simulation time: 0 hr 0 min 55 sec) 
Heartbeat CPU  0 instructions:   39000001 cycles:   41929036 heartbeat IPC: 1.11917 cumulative IPC: 0.93014 (Simulation time: 0 hr 0 min 57 sec) 
Heartbeat CPU  0 instructions:   40000000 cycles:   42886664 heartbeat IPC: 1.04425 cumulative IPC: 0.93269 (Simulation time: 0 hr 0 min 58 sec) 
Heartbeat CPU  0 instructions:   41000000 cycles:   43987929 heartbeat IPC: 0.90805 cumulative IPC: 0.93207 (Simulation time: 0 hr 1 min 0 sec) 
Heartbeat CPU  0 instructions:   42000000 cycles:   45112893 heartbeat IPC: 0.88892 cumulative IPC: 0.93100 (Simulation time: 0 hr 1 min 1 sec) 
Heartbeat CPU  0 instructions:   43000003 cycles:   46180465 heartbeat IPC: 0.93671 cumulative IPC: 0.93113 (Simulation time: 0 hr 1 min 3 sec) 
Heartbeat CPU  0 instructions:   44000000 cycles:   47300354 heartbeat IPC: 0.89294 cumulative IPC: 0.93023 (Simulation time: 0 hr 1 min 4 sec) 
Heartbeat CPU  0 instructions:   45000001 cycles:   48334061 heartbeat IPC: 0.96739 cumulative IPC: 0.93102 (Simulation time: 0 hr 1 min 6 sec) 
Heartbeat CPU  0 instructions:   46000000 cycles:   49420408 heartbeat IPC: 0.92052 cumulative IPC: 0.93079 (Simulation time: 0 hr 1 min 7 sec) 
Heartbeat CPU  0 instructions:   47000003 cycles:   50528643 heartbeat IPC: 0.90234 cumulative IPC: 0.93017 (Simulation time: 0 hr 1 min 9 sec) 
Heartbeat CPU  0 instructions:   48000000 cycles:   51497798 heartbeat IPC: 1.03182 cumulative IPC: 0.93208 (Simulation time: 0 hr 1 min 10 sec) 
Heartbeat CPU  0 instructions:   49000000 cycles:   52612276 heartbeat IPC: 0.89728 cumulative IPC: 0.93134 (Simulation time: 0 hr 1 min 12 sec) 
Heartbeat CPU  0 instructions:   50000000 cycles:   53696262 heartbeat IPC: 0.92252 cumulative IPC: 0.93116 (Simulation time: 0 hr 1 min 13 sec) 
Heartbeat CPU  0 instructions:   51000001 cycles:   54763593 heartbeat IPC: 0.93692 cumulative IPC: 0.93128 (Simulation time: 0 hr 1 min 14 sec) 
Heartbeat CPU  0 instructions:   52000000 cycles:   55893233 heartbeat IPC: 0.88524 cumulative IPC: 0.93035 (Simulation time: 0 hr 1 min 16 sec) 
Heartbeat CPU  0 instructions:   53000000 cycles:   56999703 heartbeat IPC: 0.90378 cumulative IPC: 0.92983 (Simulation time: 0 hr 1 min 17 sec) 
Heartbeat CPU  0 instructions:   54000001 cycles:   58196308 heartbeat IPC: 0.83570 cumulative IPC: 0.92789 (Simulation time: 0 hr 1 min 19 sec) 
Heartbeat CPU  0 instructions:   55000002 cycles:   59315929 heartbeat IPC: 0.89316 cumulative IPC: 0.92724 (Simulation time: 0 hr 1 min 20 sec) 
Heartbeat CPU  0 instructions:   56000000 cycles:   60381724 heartbeat IPC: 0.93826 cumulative IPC: 0.92743 (Simulation time: 0 hr 1 min 22 sec) 
Heartbeat CPU  0 instructions:   57000000 cycles:   61469733 heartbeat IPC: 0.91911 cumulative IPC: 0.92729 (Simulation time: 0 hr 1 min 23 sec) 
Heartbeat CPU  0 instructions:   58000001 cycles:   62558977 heartbeat IPC: 0.91807 cumulative IPC: 0.92713 (Simulation time: 0 hr 1 min 25 sec) 
Heartbeat CPU  0 instructions:   59000000 cycles:   63433698 heartbeat IPC: 1.14322 cumulative IPC: 0.93011 (Simulation time: 0 hr 1 min 26 sec) 
Heartbeat CPU  0 instructions:   60000000 cycles:   64552457 heartbeat IPC: 0.89385 cumulative IPC: 0.92948 (Simulation time: 0 hr 1 min 27 sec) 
Heartbeat CPU  0 instructions:   61000000 cycles:   65648632 heartbeat IPC: 0.91226 cumulative IPC: 0.92919 (Simulation time: 0 hr 1 min 29 sec) 
Heartbeat CPU  0 instructions:   62000000 cycles:   66726848 heartbeat IPC: 0.92746 cumulative IPC: 0.92916 (Simulation time: 0 hr 1 min 30 sec) 
Heartbeat CPU  0 instructions:   63000001 cycles:   67744135 heartbeat IPC: 0.98301 cumulative IPC: 0.92997 (Simulation time: 0 hr 1 min 32 sec) 
Heartbeat CPU  0 instructions:   64000000 cycles:   68866594 heartbeat IPC: 0.89090 cumulative IPC: 0.92933 (Simulation time: 0 hr 1 min 33 sec) 
Heartbeat CPU  0 instructions:   65000000 cycles:   69942018 heartbeat IPC: 0.92987 cumulative IPC: 0.92934 (Simulation time: 0 hr 1 min 35 sec) 
Heartbeat CPU  0 instructions:   66000000 cycles:   70998874 heartbeat IPC: 0.94620 cumulative IPC: 0.92959 (Simulation time: 0 hr 1 min 36 sec) 
Heartbeat CPU  0 instructions:   67000000 cycles:   72112409 heartbeat IPC: 0.89804 cumulative IPC: 0.92910 (Simulation time: 0 hr 1 min 38 sec) 
Heartbeat CPU  0 instructions:   68000000 cycles:   73200753 heartbeat IPC: 0.91883 cumulative IPC: 0.92895 (Simulation time: 0 hr 1 min 39 sec) 
Heartbeat CPU  0 instructions:   69000001 cycles:   74309369 heartbeat IPC: 0.90203 cumulative IPC: 0.92855 (Simulation time: 0 hr 1 min 41 sec) 
Heartbeat CPU  0 instructions:   70000000 cycles:   75282262 heartbeat IPC: 1.02786 cumulative IPC: 0.92983 (Simulation time: 0 hr 1 min 42 sec) 
Heartbeat CPU  0 instructions:   71000000 cycles:   76197242 heartbeat IPC: 1.09292 cumulative IPC: 0.93179 (Simulation time: 0 hr 1 min 44 sec) 
Heartbeat CPU  0 instructions:   72000000 cycles:   77296667 heartbeat IPC: 0.90957 cumulative IPC: 0.93148 (Simulation time: 0 hr 1 min 45 sec) 
Heartbeat CPU  0 instructions:   73000001 cycles:   78358716 heartbeat IPC: 0.94158 cumulative IPC: 0.93161 (Simulation time: 0 hr 1 min 47 sec) 
Heartbeat CPU  0 instructions:   74000000 cycles:   79425569 heartbeat IPC: 0.93734 cumulative IPC: 0.93169 (Simulation time: 0 hr 1 min 48 sec) 
Heartbeat CPU  0 instructions:   75000001 cycles:   80368100 heartbeat IPC: 1.06097 cumulative IPC: 0.93321 (Simulation time: 0 hr 1 min 50 sec) 
Heartbeat CPU  0 instructions:   76000000 cycles:   81356122 heartbeat IPC: 1.01212 cumulative IPC: 0.93416 (Simulation time: 0 hr 1 min 51 sec) 
Heartbeat CPU  0 instructions:   77000002 cycles:   82397778 heartbeat IPC: 0.96001 cumulative IPC: 0.93449 (Simulation time: 0 hr 1 min 53 sec) 
Heartbeat CPU  0 instructions:   78000000 cycles:   83348974 heartbeat IPC: 1.05131 cumulative IPC: 0.93582 (Simulation time: 0 hr 1 min 54 sec) 
Heartbeat CPU  0 instructions:   79000003 cycles:   84379587 heartbeat IPC: 0.97030 cumulative IPC: 0.93625 (Simulation time: 0 hr 1 min 56 sec) 
Heartbeat CPU  0 instructions:   80000000 cycles:   85445914 heartbeat IPC: 0.93780 cumulative IPC: 0.93626 (Simulation time: 0 hr 1 min 57 sec) 
Heartbeat CPU  0 instructions:   81000003 cycles:   86534308 heartbeat IPC: 0.91879 cumulative IPC: 0.93604 (Simulation time: 0 hr 1 min 59 sec) 
Heartbeat CPU  0 instructions:   82000000 cycles:   87609199 heartbeat IPC: 0.93032 cumulative IPC: 0.93597 (Simulation time: 0 hr 2 min 0 sec) 
Heartbeat CPU  0 instructions:   83000001 cycles:   88708400 heartbeat IPC: 0.90975 cumulative IPC: 0.93565 (Simulation time: 0 hr 2 min 2 sec) 
Heartbeat CPU  0 instructions:   84000000 cycles:   89747352 heartbeat IPC: 0.96251 cumulative IPC: 0.93596 (Simulation time: 0 hr 2 min 3 sec) 
Heartbeat CPU  0 instructions:   85000000 cycles:   90746930 heartbeat IPC: 1.00042 cumulative IPC: 0.93667 (Simulation time: 0 hr 2 min 5 sec) 
Heartbeat CPU  0 instructions:   86000000 cycles:   91832949 heartbeat IPC: 0.92079 cumulative IPC: 0.93648 (Simulation time: 0 hr 2 min 7 sec) 
Heartbeat CPU  0 instructions:   87000002 cycles:   92919708 heartbeat IPC: 0.92017 cumulative IPC: 0.93629 (Simulation time: 0 hr 2 min 8 sec) 
Heartbeat CPU  0 instructions:   88000000 cycles:   93989826 heartbeat IPC: 0.93447 cumulative IPC: 0.93627 (Simulation time: 0 hr 2 min 9 sec) 
Heartbeat CPU  0 instructions:   89000002 cycles:   95089035 heartbeat IPC: 0.90975 cumulative IPC: 0.93596 (Simulation time: 0 hr 2 min 11 sec) 
Heartbeat CPU  0 instructions:   90000002 cycles:   96176386 heartbeat IPC: 0.91967 cumulative IPC: 0.93578 (Simulation time: 0 hr 2 min 12 sec) 
Heartbeat CPU  0 instructions:   91000001 cycles:   97242854 heartbeat IPC: 0.93767 cumulative IPC: 0.93580 (Simulation time: 0 hr 2 min 14 sec) 
Heartbeat CPU  0 instructions:   92000000 cycles:   98361584 heartbeat IPC: 0.89387 cumulative IPC: 0.93532 (Simulation time: 0 hr 2 min 15 sec) 
Heartbeat CPU  0 instructions:   93000000 cycles:   99400876 heartbeat IPC: 0.96219 cumulative IPC: 0.93561 (Simulation time: 0 hr 2 min 17 sec) 
Heartbeat CPU  0 instructions:   94000001 cycles:  100519052 heartbeat IPC: 0.89431 cumulative IPC: 0.93515 (Simulation time: 0 hr 2 min 18 sec) 
Heartbeat CPU  0 instructions:   95000001 cycles:  101611020 heartbeat IPC: 0.91578 cumulative IPC: 0.93494 (Simulation time: 0 hr 2 min 20 sec) 
Heartbeat CPU  0 instructions:   96000000 cycles:  102700700 heartbeat IPC: 0.91770 cumulative IPC: 0.93476 (Simulation time: 0 hr 2 min 21 sec) 
Heartbeat CPU  0 instructions:   97000001 cycles:  103828895 heartbeat IPC: 0.88637 cumulative IPC: 0.93423 (Simulation time: 0 hr 2 min 23 sec) 
Heartbeat CPU  0 instructions:   98000000 cycles:  104927582 heartbeat IPC: 0.91018 cumulative IPC: 0.93398 (Simulation time: 0 hr 2 min 24 sec) 
Heartbeat CPU  0 instructions:   99000003 cycles:  105999090 heartbeat IPC: 0.93327 cumulative IPC: 0.93397 (Simulation time: 0 hr 2 min 26 sec) 
Heartbeat CPU  0 instructions:  100000000 cycles:  107084525 heartbeat IPC: 0.92129 cumulative IPC: 0.93384 (Simulation time: 0 hr 2 min 27 sec) 

Warmup complete CPU  0 instructions:  100000001 cycles:  107084527 (Simulation time: 0 hr 2 min 27 sec) 

Heartbeat CPU  0 instructions:  101000000 cycles:  109761980 heartbeat IPC: 0.37349 cumulative IPC: 0.37349 (Simulation time: 0 hr 2 min 29 sec) 
Heartbeat CPU  0 instructions:  102000000 cycles:  112419010 heartbeat IPC: 0.37636 cumulative IPC: 0.37492 (Simulation time: 0 hr 2 min 32 sec) 
Heartbeat CPU  0 instructions:  103000000 cycles:  115082401 heartbeat IPC: 0.37546 cumulative IPC: 0.37510 (Simulation time: 0 hr 2 min 34 sec) 
Heartbeat CPU  0 instructions:  104000000 cycles:  117668865 heartbeat IPC: 0.38663 cumulative IPC: 0.37792 (Simulation time: 0 hr 2 min 37 sec) 
Heartbeat CPU  0 instructions:  105000003 cycles:  120418659 heartbeat IPC: 0.36366 cumulative IPC: 0.37498 (Simulation time: 0 hr 2 min 39 sec) 
Heartbeat CPU  0 instructions:  106000001 cycles:  123132498 heartbeat IPC: 0.36848 cumulative IPC: 0.37388 (Simulation time: 0 hr 2 min 41 sec) 
Heartbeat CPU  0 instructions:  107000003 cycles:  125847566 heartbeat IPC: 0.36832 cumulative IPC: 0.37307 (Simulation time: 0 hr 2 min 44 sec) 
Heartbeat CPU  0 instructions:  108000000 cycles:  128690270 heartbeat IPC: 0.35178 cumulative IPC: 0.37027 (Simulation time: 0 hr 2 min 46 sec) 
Heartbeat CPU  0 instructions:  109000000 cycles:  131507234 heartbeat IPC: 0.35499 cumulative IPC: 0.36851 (Simulation time: 0 hr 2 min 48 sec) 
Heartbeat CPU  0 instructions:  110000002 cycles:  134192805 heartbeat IPC: 0.37236 cumulative IPC: 0.36889 (Simulation time: 0 hr 2 min 51 sec) 
Heartbeat CPU  0 instructions:  111000002 cycles:  136778775 heartbeat IPC: 0.38670 cumulative IPC: 0.37044 (Simulation time: 0 hr 2 min 53 sec) 
Heartbeat CPU  0 instructions:  112000000 cycles:  139548581 heartbeat IPC: 0.36104 cumulative IPC: 0.36964 (Simulation time: 0 hr 2 min 56 sec) 
Heartbeat CPU  0 instructions:  113000001 cycles:  142429225 heartbeat IPC: 0.34714 cumulative IPC: 0.36781 (Simulation time: 0 hr 2 min 58 sec) 
Heartbeat CPU  0 instructions:  114000000 cycles:  145273557 heartbeat IPC: 0.35158 cumulative IPC: 0.36660 (Simulation time: 0 hr 3 min 0 sec) 
Heartbeat CPU  0 instructions:  115000000 cycles:  148002148 heartbeat IPC: 0.36649 cumulative IPC: 0.36659 (Simulation time: 0 hr 3 min 3 sec) 
Heartbeat CPU  0 instructions:  116000000 cycles:  150796491 heartbeat IPC: 0.35787 cumulative IPC: 0.36603 (Simulation time: 0 hr 3 min 5 sec) 
Heartbeat CPU  0 instructions:  117000002 cycles:  153551856 heartbeat IPC: 0.36293 cumulative IPC: 0.36585 (Simulation time: 0 hr 3 min 8 sec) 
Heartbeat CPU  0 instructions:  118000000 cycles:  156321924 heartbeat IPC: 0.36100 cumulative IPC: 0.36558 (Simulation time: 0 hr 3 min 10 sec) 
Heartbeat CPU  0 instructions:  119000000 cycles:  159096457 heartbeat IPC: 0.36042 cumulative IPC: 0.36530 (Simulation time: 0 hr 3 min 12 sec) 
Heartbeat CPU  0 instructions:  120000000 cycles:  161957394 heartbeat IPC: 0.34954 cumulative IPC: 0.36448 (Simulation time: 0 hr 3 min 15 sec) 
Heartbeat CPU  0 instructions:  121000000 cycles:  164689240 heartbeat IPC: 0.36605 cumulative IPC: 0.36455 (Simulation time: 0 hr 3 min 17 sec) 
Heartbeat CPU  0 instructions:  122000001 cycles:  167462080 heartbeat IPC: 0.36064 cumulative IPC: 0.36437 (Simulation time: 0 hr 3 min 19 sec) 
Heartbeat CPU  0 instructions:  123000001 cycles:  170170015 heartbeat IPC: 0.36929 cumulative IPC: 0.36458 (Simulation time: 0 hr 3 min 22 sec) 
Heartbeat CPU  0 instructions:  124000000 cycles:  172816785 heartbeat IPC: 0.37782 cumulative IPC: 0.36512 (Simulation time: 0 hr 3 min 24 sec) 
Heartbeat CPU  0 instructions:  125000003 cycles:  175456332 heartbeat IPC: 0.37885 cumulative IPC: 0.36565 (Simulation time: 0 hr 3 min 26 sec) 
Heartbeat CPU  0 instructions:  126000000 cycles:  178120559 heartbeat IPC: 0.37534 cumulative IPC: 0.36601 (Simulation time: 0 hr 3 min 29 sec) 
Heartbeat CPU  0 instructions:  127000001 cycles:  181001764 heartbeat IPC: 0.34708 cumulative IPC: 0.36527 (Simulation time: 0 hr 3 min 31 sec) 
Heartbeat CPU  0 instructions:  128000000 cycles:  183720250 heartbeat IPC: 0.36785 cumulative IPC: 0.36536 (Simulation time: 0 hr 3 min 33 sec) 
Heartbeat CPU  0 instructions:  129000001 cycles:  186593638 heartbeat IPC: 0.34802 cumulative IPC: 0.36474 (Simulation time: 0 hr 3 min 36 sec) 
Heartbeat CPU  0 instructions:  130000000 cycles:  189464377 heartbeat IPC: 0.34834 cumulative IPC: 0.36417 (Simulation time: 0 hr 3 min 38 sec) 
Heartbeat CPU  0 instructions:  131000000 cycles:  192225028 heartbeat IPC: 0.36223 cumulative IPC: 0.36410 (Simulation time: 0 hr 3 min 41 sec) 
Heartbeat CPU  0 instructions:  132000000 cycles:  195000454 heartbeat IPC: 0.36031 cumulative IPC: 0.36398 (Simulation time: 0 hr 3 min 43 sec) 
Heartbeat CPU  0 instructions:  133000001 cycles:  197726969 heartbeat IPC: 0.36677 cumulative IPC: 0.36407 (Simulation time: 0 hr 3 min 45 sec) 
Heartbeat CPU  0 instructions:  134000000 cycles:  200501368 heartbeat IPC: 0.36044 cumulative IPC: 0.36396 (Simulation time: 0 hr 3 min 48 sec) 
Heartbeat CPU  0 instructions:  135000000 cycles:  203315557 heartbeat IPC: 0.35534 cumulative IPC: 0.36371 (Simulation time: 0 hr 3 min 50 sec) 
Heartbeat CPU  0 instructions:  136000000 cycles:  206113961 heartbeat IPC: 0.35735 cumulative IPC: 0.36353 (Simulation time: 0 hr 3 min 53 sec) 
Heartbeat CPU  0 instructions:  137000000 cycles:  208858078 heartbeat IPC: 0.36442 cumulative IPC: 0.36355 (Simulation time: 0 hr 3 min 55 sec) 
Heartbeat CPU  0 instructions:  138000000 cycles:  211526631 heartbeat IPC: 0.37473 cumulative IPC: 0.36384 (Simulation time: 0 hr 3 min 57 sec) 
Heartbeat CPU  0 instructions:  139000002 cycles:  214302216 heartbeat IPC: 0.36029 cumulative IPC: 0.36375 (Simulation time: 0 hr 4 min 0 sec) 
Heartbeat CPU  0 instructions:  140000000 cycles:  217074214 heartbeat IPC: 0.36075 cumulative IPC: 0.36367 (Simulation time: 0 hr 4 min 2 sec) 
Heartbeat CPU  0 instructions:  141000003 cycles:  219852135 heartbeat IPC: 0.35998 cumulative IPC: 0.36358 (Simulation time: 0 hr 4 min 5 sec) 
Heartbeat CPU  0 instructions:  142000000 cycles:  222546063 heartbeat IPC: 0.37120 cumulative IPC: 0.36376 (Simulation time: 0 hr 4 min 7 sec) 
Heartbeat CPU  0 instructions:  143000001 cycles:  225220861 heartbeat IPC: 0.37386 cumulative IPC: 0.36399 (Simulation time: 0 hr 4 min 9 sec) 
Heartbeat CPU  0 instructions:  144000000 cycles:  227084959 heartbeat IPC: 0.53645 cumulative IPC: 0.36667 (Simulation time: 0 hr 4 min 12 sec) 
Heartbeat CPU  0 instructions:  145000001 cycles:  228356245 heartbeat IPC: 0.78661 cumulative IPC: 0.37107 (Simulation time: 0 hr 4 min 15 sec) 
Heartbeat CPU  0 instructions:  146000001 cycles:  231426533 heartbeat IPC: 0.32570 cumulative IPC: 0.36995 (Simulation time: 0 hr 4 min 19 sec) 
Heartbeat CPU  0 instructions:  147000001 cycles:  235252955 heartbeat IPC: 0.26134 cumulative IPC: 0.36670 (Simulation time: 0 hr 4 min 24 sec) 
Heartbeat CPU  0 instructions:  148000000 cycles:  239652051 heartbeat IPC: 0.22732 cumulative IPC: 0.36208 (Simulation time: 0 hr 4 min 29 sec) 
Heartbeat CPU  0 instructions:  149000001 cycles:  247564063 heartbeat IPC: 0.12639 cumulative IPC: 0.34881 (Simulation time: 0 hr 4 min 37 sec) 
Heartbeat CPU  0 instructions:  150000001 cycles:  256598447 heartbeat IPC: 0.11069 cumulative IPC: 0.33442 (Simulation time: 0 hr 4 min 45 sec) 
Heartbeat CPU  0 instructions:  151000001 cycles:  266097875 heartbeat IPC: 0.10527 cumulative IPC: 0.32073 (Simulation time: 0 hr 4 min 54 sec) 
Heartbeat CPU  0 instructions:  152000000 cycles:  277242295 heartbeat IPC: 0.08973 cumulative IPC: 0.30560 (Simulation time: 0 hr 5 min 4 sec) 
Heartbeat CPU  0 instructions:  153000001 cycles:  291143621 heartbeat IPC: 0.07194 cumulative IPC: 0.28795 (Simulation time: 0 hr 5 min 16 sec) 
Heartbeat CPU  0 instructions:  154000003 cycles:  305416016 heartbeat IPC: 0.07007 cumulative IPC: 0.27227 (Simulation time: 0 hr 5 min 28 sec) 
Heartbeat CPU  0 instructions:  155000002 cycles:  311501398 heartbeat IPC: 0.16433 cumulative IPC: 0.26906 (Simulation time: 0 hr 5 min 34 sec) 
Heartbeat CPU  0 instructions:  156000000 cycles:  316261101 heartbeat IPC: 0.21010 cumulative IPC: 0.26772 (Simulation time: 0 hr 5 min 39 sec) 
Heartbeat CPU  0 instructions:  157000002 cycles:  321035778 heartbeat IPC: 0.20944 cumulative IPC: 0.26642 (Simulation time: 0 hr 5 min 45 sec) 
Heartbeat CPU  0 instructions:  158000002 cycles:  326082135 heartbeat IPC: 0.19816 cumulative IPC: 0.26484 (Simulation time: 0 hr 5 min 50 sec) 
Heartbeat CPU  0 instructions:  159000002 cycles:  335618110 heartbeat IPC: 0.10487 cumulative IPC: 0.25817 (Simulation time: 0 hr 5 min 59 sec) 
Heartbeat CPU  0 instructions:  160000000 cycles:  345087690 heartbeat IPC: 0.10560 cumulative IPC: 0.25210 (Simulation time: 0 hr 6 min 8 sec) 
Heartbeat CPU  0 instructions:  161000002 cycles:  354505229 heartbeat IPC: 0.10619 cumulative IPC: 0.24654 (Simulation time: 0 hr 6 min 16 sec) 
Heartbeat CPU  0 instructions:  162000000 cycles:  367451111 heartbeat IPC: 0.07724 cumulative IPC: 0.23813 (Simulation time: 0 hr 6 min 27 sec) 
Heartbeat CPU  0 instructions:  163000002 cycles:  381665693 heartbeat IPC: 0.07035 cumulative IPC: 0.22944 (Simulation time: 0 hr 6 min 40 sec) 
Heartbeat CPU  0 instructions:  164000000 cycles:  392881896 heartbeat IPC: 0.08916 cumulative IPC: 0.22393 (Simulation time: 0 hr 6 min 49 sec) 
Heartbeat CPU  0 instructions:  165000003 cycles:  396228254 heartbeat IPC: 0.29883 cumulative IPC: 0.22480 (Simulation time: 0 hr 6 min 52 sec) 
Heartbeat CPU  0 instructions:  166000000 cycles:  399064248 heartbeat IPC: 0.35261 cumulative IPC: 0.22604 (Simulation time: 0 hr 6 min 55 sec) 
Heartbeat CPU  0 instructions:  167000002 cycles:  401849111 heartbeat IPC: 0.35908 cumulative IPC: 0.22730 (Simulation time: 0 hr 6 min 57 sec) 
Heartbeat CPU  0 instructions:  168000000 cycles:  404621129 heartbeat IPC: 0.36075 cumulative IPC: 0.22854 (Simulation time: 0 hr 6 min 59 sec) 
Heartbeat CPU  0 instructions:  169000000 cycles:  407431444 heartbeat IPC: 0.35583 cumulative IPC: 0.22973 (Simulation time: 0 hr 7 min 2 sec) 
Heartbeat CPU  0 instructions:  170000003 cycles:  410215080 heartbeat IPC: 0.35924 cumulative IPC: 0.23092 (Simulation time: 0 hr 7 min 4 sec) 
Heartbeat CPU  0 instructions:  171000000 cycles:  412921546 heartbeat IPC: 0.36948 cumulative IPC: 0.23215 (Simulation time: 0 hr 7 min 7 sec) 
Heartbeat CPU  0 instructions:  172000000 cycles:  415696565 heartbeat IPC: 0.36036 cumulative IPC: 0.23330 (Simulation time: 0 hr 7 min 9 sec) 
Heartbeat CPU  0 instructions:  173000000 cycles:  418386375 heartbeat IPC: 0.37177 cumulative IPC: 0.23450 (Simulation time: 0 hr 7 min 11 sec) 
Heartbeat CPU  0 instructions:  174000000 cycles:  421163869 heartbeat IPC: 0.36004 cumulative IPC: 0.23561 (Simulation time: 0 hr 7 min 14 sec) 
Heartbeat CPU  0 instructions:  175000001 cycles:  423931926 heartbeat IPC: 0.36126 cumulative IPC: 0.23671 (Simulation time: 0 hr 7 min 16 sec) 
Heartbeat CPU  0 instructions:  176000000 cycles:  426711262 heartbeat IPC: 0.35980 cumulative IPC: 0.23778 (Simulation time: 0 hr 7 min 19 sec) 
Heartbeat CPU  0 instructions:  177000000 cycles:  429489045 heartbeat IPC: 0.36000 cumulative IPC: 0.23883 (Simulation time: 0 hr 7 min 21 sec) 
Heartbeat CPU  0 instructions:  178000001 cycles:  432208693 heartbeat IPC: 0.36770 cumulative IPC: 0.23991 (Simulation time: 0 hr 7 min 23 sec) 
Heartbeat CPU  0 instructions:  179000003 cycles:  434819819 heartbeat IPC: 0.38298 cumulative IPC: 0.24105 (Simulation time: 0 hr 7 min 26 sec) 
Heartbeat CPU  0 instructions:  180000000 cycles:  437563292 heartbeat IPC: 0.36450 cumulative IPC: 0.24207 (Simulation time: 0 hr 7 min 28 sec) 
Heartbeat CPU  0 instructions:  181000000 cycles:  440050756 heartbeat IPC: 0.40202 cumulative IPC: 0.24327 (Simulation time: 0 hr 7 min 30 sec) 
Heartbeat CPU  0 instructions:  182000000 cycles:  442731516 heartbeat IPC: 0.37303 cumulative IPC: 0.24430 (Simulation time: 0 hr 7 min 33 sec) 
Heartbeat CPU  0 instructions:  183000000 cycles:  445311333 heartbeat IPC: 0.38762 cumulative IPC: 0.24540 (Simulation time: 0 hr 7 min 35 sec) 
Heartbeat CPU  0 instructions:  184000000 cycles:  447785090 heartbeat IPC: 0.40424 cumulative IPC: 0.24655 (Simulation time: 0 hr 7 min 37 sec) 
Heartbeat CPU  0 instructions:  185000000 cycles:  450400420 heartbeat IPC: 0.38236 cumulative IPC: 0.24759 (Simulation time: 0 hr 7 min 40 sec) 
Heartbeat CPU  0 instructions:  186000000 cycles:  453101019 heartbeat IPC: 0.37029 cumulative IPC: 0.24854 (Simulation time: 0 hr 7 min 42 sec) 
Heartbeat CPU  0 instructions:  187000000 cycles:  455677163 heartbeat IPC: 0.38818 cumulative IPC: 0.24957 (Simulation time: 0 hr 7 min 44 sec) 
Heartbeat CPU  0 instructions:  188000000 cycles:  458074075 heartbeat IPC: 0.41720 cumulative IPC: 0.25072 (Simulation time: 0 hr 7 min 47 sec) 
Heartbeat CPU  0 instructions:  189000000 cycles:  460710993 heartbeat IPC: 0.37923 cumulative IPC: 0.25168 (Simulation time: 0 hr 7 min 49 sec) 
Heartbeat CPU  0 instructions:  190000000 cycles:  463262186 heartbeat IPC: 0.39197 cumulative IPC: 0.25268 (Simulation time: 0 hr 7 min 51 sec) 
Heartbeat CPU  0 instructions:  191000001 cycles:  465877716 heartbeat IPC: 0.38233 cumulative IPC: 0.25363 (Simulation time: 0 hr 7 min 54 sec) 
Heartbeat CPU  0 instructions:  192000000 cycles:  468467114 heartbeat IPC: 0.38619 cumulative IPC: 0.25458 (Simulation time: 0 hr 7 min 56 sec) 
Heartbeat CPU  0 instructions:  193000001 cycles:  471007319 heartbeat IPC: 0.39367 cumulative IPC: 0.25555 (Simulation time: 0 hr 7 min 59 sec) 
Heartbeat CPU  0 instructions:  194000000 cycles:  473060833 heartbeat IPC: 0.48697 cumulative IPC: 0.25685 (Simulation time: 0 hr 8 min 1 sec) 
Heartbeat CPU  0 instructions:  195000000 cycles:  475694171 heartbeat IPC: 0.37975 cumulative IPC: 0.25773 (Simulation time: 0 hr 8 min 3 sec) 
Heartbeat CPU  0 instructions:  196000000 cycles:  478313996 heartbeat IPC: 0.38170 cumulative IPC: 0.25860 (Simulation time: 0 hr 8 min 5 sec) 
Heartbeat CPU  0 instructions:  197000002 cycles:  480872541 heartbeat IPC: 0.39085 cumulative IPC: 0.25951 (Simulation time: 0 hr 8 min 8 sec) 
Heartbeat CPU  0 instructions:  198000000 cycles:  483392343 heartbeat IPC: 0.39686 cumulative IPC: 0.26043 (Simulation time: 0 hr 8 min 10 sec) 
Heartbeat CPU  0 instructions:  199000000 cycles:  485908676 heartbeat IPC: 0.39740 cumulative IPC: 0.26133 (Simulation time: 0 hr 8 min 12 sec) 
Heartbeat CPU  0 instructions:  200000000 cycles:  488478683 heartbeat IPC: 0.38910 cumulative IPC: 0.26220 (Simulation time: 0 hr 8 min 15 sec) 
Heartbeat CPU  0 instructions:  201000002 cycles:  491151847 heartbeat IPC: 0.37409 cumulative IPC: 0.26297 (Simulation time: 0 hr 8 min 17 sec) 
Heartbeat CPU  0 instructions:  202000001 cycles:  493851078 heartbeat IPC: 0.37048 cumulative IPC: 0.26372 (Simulation time: 0 hr 8 min 19 sec) 
Heartbeat CPU  0 instructions:  203000000 cycles:  496433837 heartbeat IPC: 0.38718 cumulative IPC: 0.26454 (Simulation time: 0 hr 8 min 22 sec) 
Heartbeat CPU  0 instructions:  204000000 cycles:  498961476 heartbeat IPC: 0.39563 cumulative IPC: 0.26539 (Simulation time: 0 hr 8 min 24 sec) 
Heartbeat CPU  0 instructions:  205000002 cycles:  501583141 heartbeat IPC: 0.38144 cumulative IPC: 0.26616 (Simulation time: 0 hr 8 min 26 sec) 
Heartbeat CPU  0 instructions:  206000001 cycles:  504112136 heartbeat IPC: 0.39541 cumulative IPC: 0.26698 (Simulation time: 0 hr 8 min 29 sec) 
Heartbeat CPU  0 instructions:  207000000 cycles:  506699506 heartbeat IPC: 0.38649 cumulative IPC: 0.26776 (Simulation time: 0 hr 8 min 31 sec) 
Heartbeat CPU  0 instructions:  208000000 cycles:  509516625 heartbeat IPC: 0.35497 cumulative IPC: 0.26837 (Simulation time: 0 hr 8 min 33 sec) 
Heartbeat CPU  0 instructions:  209000003 cycles:  512341747 heartbeat IPC: 0.35397 cumulative IPC: 0.26896 (Simulation time: 0 hr 8 min 36 sec) 
Heartbeat CPU  0 instructions:  210000000 cycles:  514950013 heartbeat IPC: 0.38340 cumulative IPC: 0.26970 (Simulation time: 0 hr 8 min 38 sec) 
Heartbeat CPU  0 instructions:  211000000 cycles:  517818448 heartbeat IPC: 0.34862 cumulative IPC: 0.27025 (Simulation time: 0 hr 8 min 41 sec) 
Heartbeat CPU  0 instructions:  212000000 cycles:  520519379 heartbeat IPC: 0.37024 cumulative IPC: 0.27090 (Simulation time: 0 hr 8 min 43 sec) 
Heartbeat CPU  0 instructions:  213000002 cycles:  523268871 heartbeat IPC: 0.36370 cumulative IPC: 0.27151 (Simulation time: 0 hr 8 min 45 sec) 
Heartbeat CPU  0 instructions:  214000000 cycles:  526073603 heartbeat IPC: 0.35654 cumulative IPC: 0.27208 (Simulation time: 0 hr 8 min 48 sec) 
Heartbeat CPU  0 instructions:  215000001 cycles:  528864213 heartbeat IPC: 0.35834 cumulative IPC: 0.27265 (Simulation time: 0 hr 8 min 50 sec) 
Heartbeat CPU  0 instructions:  216000000 cycles:  531626025 heartbeat IPC: 0.36208 cumulative IPC: 0.27324 (Simulation time: 0 hr 8 min 52 sec) 
Heartbeat CPU  0 instructions:  217000000 cycles:  534405646 heartbeat IPC: 0.35976 cumulative IPC: 0.27380 (Simulation time: 0 hr 8 min 55 sec) 
Heartbeat CPU  0 instructions:  218000002 cycles:  537197180 heartbeat IPC: 0.35823 cumulative IPC: 0.27435 (Simulation time: 0 hr 8 min 57 sec) 
Heartbeat CPU  0 instructions:  219000000 cycles:  539954439 heartbeat IPC: 0.36268 cumulative IPC: 0.27491 (Simulation time: 0 hr 9 min 0 sec) 
Heartbeat CPU  0 instructions:  220000000 cycles:  542693105 heartbeat IPC: 0.36514 cumulative IPC: 0.27548 (Simulation time: 0 hr 9 min 2 sec) 
Heartbeat CPU  0 instructions:  221000003 cycles:  545496022 heartbeat IPC: 0.35677 cumulative IPC: 0.27600 (Simulation time: 0 hr 9 min 4 sec) 
Heartbeat CPU  0 instructions:  222000003 cycles:  548277346 heartbeat IPC: 0.35954 cumulative IPC: 0.27652 (Simulation time: 0 hr 9 min 7 sec) 
Heartbeat CPU  0 instructions:  223000000 cycles:  551002405 heartbeat IPC: 0.36696 cumulative IPC: 0.27708 (Simulation time: 0 hr 9 min 9 sec) 
Heartbeat CPU  0 instructions:  224000000 cycles:  553711968 heartbeat IPC: 0.36906 cumulative IPC: 0.27764 (Simulation time: 0 hr 9 min 12 sec) 
Heartbeat CPU  0 instructions:  225000000 cycles:  556349235 heartbeat IPC: 0.37918 cumulative IPC: 0.27823 (Simulation time: 0 hr 9 min 14 sec) 
Heartbeat CPU  0 instructions:  226000002 cycles:  559098643 heartbeat IPC: 0.36372 cumulative IPC: 0.27875 (Simulation time: 0 hr 9 min 16 sec) 
Heartbeat CPU  0 instructions:  227000000 cycles:  561848790 heartbeat IPC: 0.36362 cumulative IPC: 0.27927 (Simulation time: 0 hr 9 min 19 sec) 
Heartbeat CPU  0 instructions:  228000000 cycles:  564547144 heartbeat IPC: 0.37060 cumulative IPC: 0.27980 (Simulation time: 0 hr 9 min 21 sec) 
Heartbeat CPU  0 instructions:  229000003 cycles:  567348473 heartbeat IPC: 0.35697 cumulative IPC: 0.28027 (Simulation time: 0 hr 9 min 23 sec) 
Heartbeat CPU  0 instructions:  230000003 cycles:  570142653 heartbeat IPC: 0.35789 cumulative IPC: 0.28074 (Simulation time: 0 hr 9 min 26 sec) 
Heartbeat CPU  0 instructions:  231000000 cycles:  572925280 heartbeat IPC: 0.35937 cumulative IPC: 0.28121 (Simulation time: 0 hr 9 min 28 sec) 
Heartbeat CPU  0 instructions:  232000000 cycles:  575636324 heartbeat IPC: 0.36886 cumulative IPC: 0.28172 (Simulation time: 0 hr 9 min 31 sec) 
Heartbeat CPU  0 instructions:  233000001 cycles:  578372494 heartbeat IPC: 0.36547 cumulative IPC: 0.28221 (Simulation time: 0 hr 9 min 33 sec) 
Heartbeat CPU  0 instructions:  234000000 cycles:  581102068 heartbeat IPC: 0.36636 cumulative IPC: 0.28269 (Simulation time: 0 hr 9 min 35 sec) 
Heartbeat CPU  0 instructions:  235000000 cycles:  583808542 heartbeat IPC: 0.36948 cumulative IPC: 0.28318 (Simulation time: 0 hr 9 min 38 sec) 
Heartbeat CPU  0 instructions:  236000000 cycles:  586286725 heartbeat IPC: 0.40352 cumulative IPC: 0.28381 (Simulation time: 0 hr 9 min 40 sec) 
Heartbeat CPU  0 instructions:  237000001 cycles:  588626666 heartbeat IPC: 0.42736 cumulative IPC: 0.28450 (Simulation time: 0 hr 9 min 42 sec) 
Heartbeat CPU  0 instructions:  238000000 cycles:  591193408 heartbeat IPC: 0.38960 cumulative IPC: 0.28506 (Simulation time: 0 hr 9 min 45 sec) 
Heartbeat CPU  0 instructions:  239000000 cycles:  593951267 heartbeat IPC: 0.36260 cumulative IPC: 0.28550 (Simulation time: 0 hr 9 min 47 sec) 
Heartbeat CPU  0 instructions:  240000000 cycles:  596623421 heartbeat IPC: 0.37423 cumulative IPC: 0.28598 (Simulation time: 0 hr 9 min 49 sec) 
Heartbeat CPU  0 instructions:  241000000 cycles:  599323578 heartbeat IPC: 0.37035 cumulative IPC: 0.28645 (Simulation time: 0 hr 9 min 52 sec) 
Heartbeat CPU  0 instructions:  242000003 cycles:  602152666 heartbeat IPC: 0.35347 cumulative IPC: 0.28683 (Simulation time: 0 hr 9 min 54 sec) 
Heartbeat CPU  0 instructions:  243000001 cycles:  604930711 heartbeat IPC: 0.35996 cumulative IPC: 0.28724 (Simulation time: 0 hr 9 min 56 sec) 
Heartbeat CPU  0 instructions:  244000000 cycles:  607542365 heartbeat IPC: 0.38290 cumulative IPC: 0.28774 (Simulation time: 0 hr 9 min 59 sec) 
Heartbeat CPU  0 instructions:  245000000 cycles:  610091949 heartbeat IPC: 0.39222 cumulative IPC: 0.28827 (Simulation time: 0 hr 10 min 1 sec) 
Heartbeat CPU  0 instructions:  246000001 cycles:  612832299 heartbeat IPC: 0.36492 cumulative IPC: 0.28868 (Simulation time: 0 hr 10 min 4 sec) 
Heartbeat CPU  0 instructions:  247000002 cycles:  615479930 heartbeat IPC: 0.37770 cumulative IPC: 0.28915 (Simulation time: 0 hr 10 min 6 sec) 
Heartbeat CPU  0 instructions:  248000000 cycles:  618072111 heartbeat IPC: 0.38577 cumulative IPC: 0.28964 (Simulation time: 0 hr 10 min 9 sec) 
Heartbeat CPU  0 instructions:  249000003 cycles:  620626037 heartbeat IPC: 0.39156 cumulative IPC: 0.29014 (Simulation time: 0 hr 10 min 11 sec) 
Heartbeat CPU  0 instructions:  250000000 cycles:  623029984 heartbeat IPC: 0.41598 cumulative IPC: 0.29073 (Simulation time: 0 hr 10 min 13 sec) 
Heartbeat CPU  0 instructions:  251000002 cycles:  625747720 heartbeat IPC: 0.36795 cumulative IPC: 0.29113 (Simulation time: 0 hr 10 min 15 sec) 
Heartbeat CPU  0 instructions:  252000000 cycles:  628459566 heartbeat IPC: 0.36875 cumulative IPC: 0.29154 (Simulation time: 0 hr 10 min 18 sec) 
Heartbeat CPU  0 instructions:  253000000 cycles:  631290826 heartbeat IPC: 0.35320 cumulative IPC: 0.29187 (Simulation time: 0 hr 10 min 20 sec) 
Heartbeat CPU  0 instructions:  254000002 cycles:  634020120 heartbeat IPC: 0.36640 cumulative IPC: 0.29226 (Simulation time: 0 hr 10 min 23 sec) 
Heartbeat CPU  0 instructions:  255000001 cycles:  636757418 heartbeat IPC: 0.36532 cumulative IPC: 0.29263 (Simulation time: 0 hr 10 min 25 sec) 
Heartbeat CPU  0 instructions:  256000000 cycles:  639491596 heartbeat IPC: 0.36574 cumulative IPC: 0.29301 (Simulation time: 0 hr 10 min 27 sec) 
Heartbeat CPU  0 instructions:  257000000 cycles:  642220746 heartbeat IPC: 0.36641 cumulative IPC: 0.29338 (Simulation time: 0 hr 10 min 30 sec) 
Heartbeat CPU  0 instructions:  258000000 cycles:  644927796 heartbeat IPC: 0.36941 cumulative IPC: 0.29377 (Simulation time: 0 hr 10 min 32 sec) 
Heartbeat CPU  0 instructions:  259000000 cycles:  647415318 heartbeat IPC: 0.40201 cumulative IPC: 0.29426 (Simulation time: 0 hr 10 min 35 sec) 
Heartbeat CPU  0 instructions:  260000000 cycles:  650085144 heartbeat IPC: 0.37456 cumulative IPC: 0.29466 (Simulation time: 0 hr 10 min 37 sec) 
Heartbeat CPU  0 instructions:  261000000 cycles:  652793685 heartbeat IPC: 0.36920 cumulative IPC: 0.29503 (Simulation time: 0 hr 10 min 39 sec) 
Heartbeat CPU  0 instructions:  262000000 cycles:  655518943 heartbeat IPC: 0.36694 cumulative IPC: 0.29539 (Simulation time: 0 hr 10 min 42 sec) 
Heartbeat CPU  0 instructions:  263000001 cycles:  658211690 heartbeat IPC: 0.37137 cumulative IPC: 0.29576 (Simulation time: 0 hr 10 min 44 sec) 
Heartbeat CPU  0 instructions:  264000000 cycles:  660852494 heartbeat IPC: 0.37867 cumulative IPC: 0.29615 (Simulation time: 0 hr 10 min 46 sec) 
Heartbeat CPU  0 instructions:  265000002 cycles:  663499906 heartbeat IPC: 0.37773 cumulative IPC: 0.29654 (Simulation time: 0 hr 10 min 49 sec) 
Heartbeat CPU  0 instructions:  266000002 cycles:  666153064 heartbeat IPC: 0.37691 cumulative IPC: 0.29692 (Simulation time: 0 hr 10 min 51 sec) 
Heartbeat CPU  0 instructions:  267000003 cycles:  668881301 heartbeat IPC: 0.36654 cumulative IPC: 0.29726 (Simulation time: 0 hr 10 min 53 sec) 
Heartbeat CPU  0 instructions:  268000000 cycles:  671622233 heartbeat IPC: 0.36484 cumulative IPC: 0.29759 (Simulation time: 0 hr 10 min 56 sec) 
Heartbeat CPU  0 instructions:  269000001 cycles:  674354155 heartbeat IPC: 0.36604 cumulative IPC: 0.29792 (Simulation time: 0 hr 10 min 58 sec) 
Heartbeat CPU  0 instructions:  270000001 cycles:  677061717 heartbeat IPC: 0.36934 cumulative IPC: 0.29826 (Simulation time: 0 hr 11 min 1 sec) 
Heartbeat CPU  0 instructions:  271000003 cycles:  679760724 heartbeat IPC: 0.37051 cumulative IPC: 0.29860 (Simulation time: 0 hr 11 min 3 sec) 
Heartbeat CPU  0 instructions:  272000000 cycles:  682492038 heartbeat IPC: 0.36612 cumulative IPC: 0.29892 (Simulation time: 0 hr 11 min 5 sec) 
Heartbeat CPU  0 instructions:  273000001 cycles:  685183755 heartbeat IPC: 0.37151 cumulative IPC: 0.29926 (Simulation time: 0 hr 11 min 8 sec) 
Heartbeat CPU  0 instructions:  274000003 cycles:  687970375 heartbeat IPC: 0.35886 cumulative IPC: 0.29954 (Simulation time: 0 hr 11 min 10 sec) 
Heartbeat CPU  0 instructions:  275000002 cycles:  690695417 heartbeat IPC: 0.36697 cumulative IPC: 0.29986 (Simulation time: 0 hr 11 min 13 sec) 
Heartbeat CPU  0 instructions:  276000000 cycles:  693366812 heartbeat IPC: 0.37434 cumulative IPC: 0.30020 (Simulation time: 0 hr 11 min 15 sec) 
Heartbeat CPU  0 instructions:  277000000 cycles:  695934765 heartbeat IPC: 0.38942 cumulative IPC: 0.30059 (Simulation time: 0 hr 11 min 17 sec) 
Heartbeat CPU  0 instructions:  278000001 cycles:  698433916 heartbeat IPC: 0.40014 cumulative IPC: 0.30101 (Simulation time: 0 hr 11 min 20 sec) 
Heartbeat CPU  0 instructions:  279000002 cycles:  701012694 heartbeat IPC: 0.38778 cumulative IPC: 0.30138 (Simulation time: 0 hr 11 min 22 sec) 
Heartbeat CPU  0 instructions:  280000000 cycles:  703718549 heartbeat IPC: 0.36957 cumulative IPC: 0.30169 (Simulation time: 0 hr 11 min 24 sec) 
Heartbeat CPU  0 instructions:  281000002 cycles:  706443823 heartbeat IPC: 0.36694 cumulative IPC: 0.30199 (Simulation time: 0 hr 11 min 27 sec) 
Heartbeat CPU  0 instructions:  282000003 cycles:  709087515 heartbeat IPC: 0.37826 cumulative IPC: 0.30232 (Simulation time: 0 hr 11 min 29 sec) 
Heartbeat CPU  0 instructions:  283000001 cycles:  711556859 heartbeat IPC: 0.40497 cumulative IPC: 0.30274 (Simulation time: 0 hr 11 min 32 sec) 
Heartbeat CPU  0 instructions:  284000000 cycles:  714177746 heartbeat IPC: 0.38155 cumulative IPC: 0.30308 (Simulation time: 0 hr 11 min 34 sec) 
Heartbeat CPU  0 instructions:  285000001 cycles:  716866716 heartbeat IPC: 0.37189 cumulative IPC: 0.30339 (Simulation time: 0 hr 11 min 36 sec) 
Heartbeat CPU  0 instructions:  286000000 cycles:  719358379 heartbeat IPC: 0.40134 cumulative IPC: 0.30379 (Simulation time: 0 hr 11 min 39 sec) 
Heartbeat CPU  0 instructions:  287000002 cycles:  721928829 heartbeat IPC: 0.38904 cumulative IPC: 0.30414 (Simulation time: 0 hr 11 min 41 sec) 
Heartbeat CPU  0 instructions:  288000000 cycles:  724644200 heartbeat IPC: 0.36827 cumulative IPC: 0.30442 (Simulation time: 0 hr 11 min 43 sec) 
Heartbeat CPU  0 instructions:  289000000 cycles:  727398541 heartbeat IPC: 0.36306 cumulative IPC: 0.30468 (Simulation time: 0 hr 11 min 46 sec) 
Heartbeat CPU  0 instructions:  290000002 cycles:  730093680 heartbeat IPC: 0.37104 cumulative IPC: 0.30497 (Simulation time: 0 hr 11 min 48 sec) 
Heartbeat CPU  0 instructions:  291000000 cycles:  733050078 heartbeat IPC: 0.33825 cumulative IPC: 0.30513 (Simulation time: 0 hr 11 min 51 sec) 
Heartbeat CPU  0 instructions:  292000000 cycles:  735892958 heartbeat IPC: 0.35176 cumulative IPC: 0.30534 (Simulation time: 0 hr 11 min 53 sec) 
Heartbeat CPU  0 instructions:  293000000 cycles:  738703157 heartbeat IPC: 0.35585 cumulative IPC: 0.30556 (Simulation time: 0 hr 11 min 55 sec) 
Heartbeat CPU  0 instructions:  294000002 cycles:  741488305 heartbeat IPC: 0.35905 cumulative IPC: 0.30580 (Simulation time: 0 hr 11 min 58 sec) 
Heartbeat CPU  0 instructions:  295000001 cycles:  744214076 heartbeat IPC: 0.36687 cumulative IPC: 0.30606 (Simulation time: 0 hr 12 min 0 sec) 
Heartbeat CPU  0 instructions:  296000000 cycles:  747004953 heartbeat IPC: 0.35831 cumulative IPC: 0.30629 (Simulation time: 0 hr 12 min 3 sec) 
Heartbeat CPU  0 instructions:  297000000 cycles:  749745061 heartbeat IPC: 0.36495 cumulative IPC: 0.30654 (Simulation time: 0 hr 12 min 5 sec) 
Heartbeat CPU  0 instructions:  298000000 cycles:  752435312 heartbeat IPC: 0.37171 cumulative IPC: 0.30681 (Simulation time: 0 hr 12 min 7 sec) 
Heartbeat CPU  0 instructions:  299000000 cycles:  755250119 heartbeat IPC: 0.35526 cumulative IPC: 0.30702 (Simulation time: 0 hr 12 min 10 sec) 
Heartbeat CPU  0 instructions:  300000000 cycles:  757947551 heartbeat IPC: 0.37072 cumulative IPC: 0.30728 (Simulation time: 0 hr 12 min 12 sec) 
Heartbeat CPU  0 instructions:  301000000 cycles:  760729424 heartbeat IPC: 0.35947 cumulative IPC: 0.30751 (Simulation time: 0 hr 12 min 14 sec) 
Heartbeat CPU  0 instructions:  302000000 cycles:  763477244 heartbeat IPC: 0.36392 cumulative IPC: 0.30774 (Simulation time: 0 hr 12 min 17 sec) 
Heartbeat CPU  0 instructions:  303000000 cycles:  766360609 heartbeat IPC: 0.34682 cumulative IPC: 0.30791 (Simulation time: 0 hr 12 min 19 sec) 
Heartbeat CPU  0 instructions:  304000000 cycles:  769085033 heartbeat IPC: 0.36705 cumulative IPC: 0.30816 (Simulation time: 0 hr 12 min 22 sec) 
Heartbeat CPU  0 instructions:  305000002 cycles:  771715205 heartbeat IPC: 0.38020 cumulative IPC: 0.30844 (Simulation time: 0 hr 12 min 24 sec) 
Heartbeat CPU  0 instructions:  306000000 cycles:  774624731 heartbeat IPC: 0.34370 cumulative IPC: 0.30860 (Simulation time: 0 hr 12 min 26 sec) 
Heartbeat CPU  0 instructions:  307000000 cycles:  777369886 heartbeat IPC: 0.36428 cumulative IPC: 0.30882 (Simulation time: 0 hr 12 min 29 sec) 
Heartbeat CPU  0 instructions:  308000000 cycles:  780094125 heartbeat IPC: 0.36707 cumulative IPC: 0.30906 (Simulation time: 0 hr 12 min 31 sec) 
Heartbeat CPU  0 instructions:  309000000 cycles:  782779429 heartbeat IPC: 0.37240 cumulative IPC: 0.30931 (Simulation time: 0 hr 12 min 34 sec) 
Heartbeat CPU  0 instructions:  310000000 cycles:  785216536 heartbeat IPC: 0.41032 cumulative IPC: 0.30967 (Simulation time: 0 hr 12 min 36 sec) 
Heartbeat CPU  0 instructions:  311000000 cycles:  787113107 heartbeat IPC: 0.52727 cumulative IPC: 0.31028 (Simulation time: 0 hr 12 min 38 sec) 
Heartbeat CPU  0 instructions:  312000000 cycles:  789787193 heartbeat IPC: 0.37396 cumulative IPC: 0.31053 (Simulation time: 0 hr 12 min 40 sec) 
Heartbeat CPU  0 instructions:  313000002 cycles:  792535920 heartbeat IPC: 0.36381 cumulative IPC: 0.31074 (Simulation time: 0 hr 12 min 42 sec) 
Heartbeat CPU  0 instructions:  314000002 cycles:  795269590 heartbeat IPC: 0.36581 cumulative IPC: 0.31096 (Simulation time: 0 hr 12 min 45 sec) 
Heartbeat CPU  0 instructions:  315000001 cycles:  798037159 heartbeat IPC: 0.36133 cumulative IPC: 0.31116 (Simulation time: 0 hr 12 min 47 sec) 
Heartbeat CPU  0 instructions:  316000000 cycles:  800847653 heartbeat IPC: 0.35581 cumulative IPC: 0.31135 (Simulation time: 0 hr 12 min 49 sec) 
Heartbeat CPU  0 instructions:  317000003 cycles:  803608534 heartbeat IPC: 0.36220 cumulative IPC: 0.31155 (Simulation time: 0 hr 12 min 52 sec) 
Heartbeat CPU  0 instructions:  318000000 cycles:  806351796 heartbeat IPC: 0.36453 cumulative IPC: 0.31175 (Simulation time: 0 hr 12 min 54 sec) 
Heartbeat CPU  0 instructions:  319000000 cycles:  809036638 heartbeat IPC: 0.37246 cumulative IPC: 0.31199 (Simulation time: 0 hr 12 min 57 sec) 
Heartbeat CPU  0 instructions:  320000000 cycles:  811723428 heartbeat IPC: 0.37219 cumulative IPC: 0.31222 (Simulation time: 0 hr 12 min 59 sec) 
Heartbeat CPU  0 instructions:  321000003 cycles:  814455499 heartbeat IPC: 0.36602 cumulative IPC: 0.31242 (Simulation time: 0 hr 13 min 1 sec) 
Heartbeat CPU  0 instructions:  322000002 cycles:  817089624 heartbeat IPC: 0.37963 cumulative IPC: 0.31267 (Simulation time: 0 hr 13 min 4 sec) 
Heartbeat CPU  0 instructions:  323000000 cycles:  819724381 heartbeat IPC: 0.37954 cumulative IPC: 0.31292 (Simulation time: 0 hr 13 min 6 sec) 
Heartbeat CPU  0 instructions:  324000000 cycles:  821844372 heartbeat IPC: 0.47170 cumulative IPC: 0.31339 (Simulation time: 0 hr 13 min 8 sec) 
Heartbeat CPU  0 instructions:  325000001 cycles:  824262205 heartbeat IPC: 0.41359 cumulative IPC: 0.31373 (Simulation time: 0 hr 13 min 10 sec) 
Heartbeat CPU  0 instructions:  326000000 cycles:  826729074 heartbeat IPC: 0.40537 cumulative IPC: 0.31404 (Simulation time: 0 hr 13 min 13 sec) 
Heartbeat CPU  0 instructions:  327000000 cycles:  829156960 heartbeat IPC: 0.41188 cumulative IPC: 0.31437 (Simulation time: 0 hr 13 min 15 sec) 
Heartbeat CPU  0 instructions:  328000000 cycles:  831843284 heartbeat IPC: 0.37226 cumulative IPC: 0.31459 (Simulation time: 0 hr 13 min 17 sec) 
Heartbeat CPU  0 instructions:  329000003 cycles:  834343554 heartbeat IPC: 0.39996 cumulative IPC: 0.31488 (Simulation time: 0 hr 13 min 20 sec) 
Heartbeat CPU  0 instructions:  330000001 cycles:  836690080 heartbeat IPC: 0.42616 cumulative IPC: 0.31524 (Simulation time: 0 hr 13 min 22 sec) 
Heartbeat CPU  0 instructions:  331000001 cycles:  839060440 heartbeat IPC: 0.42188 cumulative IPC: 0.31558 (Simulation time: 0 hr 13 min 24 sec) 
Heartbeat CPU  0 instructions:  332000000 cycles:  841656164 heartbeat IPC: 0.38525 cumulative IPC: 0.31583 (Simulation time: 0 hr 13 min 27 sec) 
Heartbeat CPU  0 instructions:  333000000 cycles:  844237214 heartbeat IPC: 0.38744 cumulative IPC: 0.31608 (Simulation time: 0 hr 13 min 29 sec) 
Heartbeat CPU  0 instructions:  334000001 cycles:  846780622 heartbeat IPC: 0.39317 cumulative IPC: 0.31635 (Simulation time: 0 hr 13 min 31 sec) 
Heartbeat CPU  0 instructions:  335000000 cycles:  849384134 heartbeat IPC: 0.38410 cumulative IPC: 0.31658 (Simulation time: 0 hr 13 min 34 sec) 
Heartbeat CPU  0 instructions:  336000000 cycles:  851784033 heartbeat IPC: 0.41668 cumulative IPC: 0.31691 (Simulation time: 0 hr 13 min 36 sec) 
Heartbeat CPU  0 instructions:  337000000 cycles:  854173494 heartbeat IPC: 0.41850 cumulative IPC: 0.31723 (Simulation time: 0 hr 13 min 38 sec) 
Heartbeat CPU  0 instructions:  338000001 cycles:  856652901 heartbeat IPC: 0.40332 cumulative IPC: 0.31752 (Simulation time: 0 hr 13 min 41 sec) 
Heartbeat CPU  0 instructions:  339000000 cycles:  859128716 heartbeat IPC: 0.40391 cumulative IPC: 0.31780 (Simulation time: 0 hr 13 min 43 sec) 
Heartbeat CPU  0 instructions:  340000000 cycles:  861765953 heartbeat IPC: 0.37918 cumulative IPC: 0.31801 (Simulation time: 0 hr 13 min 45 sec) 
Heartbeat CPU  0 instructions:  341000002 cycles:  864378819 heartbeat IPC: 0.38272 cumulative IPC: 0.31824 (Simulation time: 0 hr 13 min 48 sec) 
Heartbeat CPU  0 instructions:  342000001 cycles:  867135655 heartbeat IPC: 0.36273 cumulative IPC: 0.31840 (Simulation time: 0 hr 13 min 50 sec) 
Heartbeat CPU  0 instructions:  343000003 cycles:  869727787 heartbeat IPC: 0.38578 cumulative IPC: 0.31863 (Simulation time: 0 hr 13 min 52 sec) 
Heartbeat CPU  0 instructions:  344000000 cycles:  872255965 heartbeat IPC: 0.39554 cumulative IPC: 0.31888 (Simulation time: 0 hr 13 min 54 sec) 
Heartbeat CPU  0 instructions:  345000003 cycles:  875051253 heartbeat IPC: 0.35775 cumulative IPC: 0.31902 (Simulation time: 0 hr 13 min 57 sec) 
Heartbeat CPU  0 instructions:  346000001 cycles:  877773073 heartbeat IPC: 0.36740 cumulative IPC: 0.31920 (Simulation time: 0 hr 13 min 59 sec) 
Heartbeat CPU  0 instructions:  347000002 cycles:  880270103 heartbeat IPC: 0.40048 cumulative IPC: 0.31946 (Simulation time: 0 hr 14 min 1 sec) 
Heartbeat CPU  0 instructions:  348000000 cycles:  882641359 heartbeat IPC: 0.42172 cumulative IPC: 0.31977 (Simulation time: 0 hr 14 min 4 sec) 
Heartbeat CPU  0 instructions:  349000000 cycles:  885273869 heartbeat IPC: 0.37987 cumulative IPC: 0.31997 (Simulation time: 0 hr 14 min 6 sec) 
Heartbeat CPU  0 instructions:  350000001 cycles:  887788053 heartbeat IPC: 0.39774 cumulative IPC: 0.32022 (Simulation time: 0 hr 14 min 9 sec) 
Heartbeat CPU  0 instructions:  351000000 cycles:  890588401 heartbeat IPC: 0.35710 cumulative IPC: 0.32036 (Simulation time: 0 hr 14 min 11 sec) 
Heartbeat CPU  0 instructions:  352000000 cycles:  893262170 heartbeat IPC: 0.37400 cumulative IPC: 0.32054 (Simulation time: 0 hr 14 min 13 sec) 
Heartbeat CPU  0 instructions:  353000002 cycles:  895832469 heartbeat IPC: 0.38906 cumulative IPC: 0.32076 (Simulation time: 0 hr 14 min 16 sec) 
Heartbeat CPU  0 instructions:  354000000 cycles:  898515002 heartbeat IPC: 0.37278 cumulative IPC: 0.32094 (Simulation time: 0 hr 14 min 18 sec) 
Heartbeat CPU  0 instructions:  355000003 cycles:  901255690 heartbeat IPC: 0.36487 cumulative IPC: 0.32109 (Simulation time: 0 hr 14 min 20 sec) 
Heartbeat CPU  0 instructions:  356000000 cycles:  903989212 heartbeat IPC: 0.36583 cumulative IPC: 0.32124 (Simulation time: 0 hr 14 min 23 sec) 
Heartbeat CPU  0 instructions:  357000000 cycles:  906664930 heartbeat IPC: 0.37373 cumulative IPC: 0.32142 (Simulation time: 0 hr 14 min 25 sec) 
Heartbeat CPU  0 instructions:  358000000 cycles:  909369437 heartbeat IPC: 0.36975 cumulative IPC: 0.32158 (Simulation time: 0 hr 14 min 27 sec) 
Heartbeat CPU  0 instructions:  359000000 cycles:  912052864 heartbeat IPC: 0.37266 cumulative IPC: 0.32175 (Simulation time: 0 hr 14 min 30 sec) 
Heartbeat CPU  0 instructions:  360000000 cycles:  914728109 heartbeat IPC: 0.37380 cumulative IPC: 0.32192 (Simulation time: 0 hr 14 min 32 sec) 
Heartbeat CPU  0 instructions:  361000000 cycles:  917259833 heartbeat IPC: 0.39499 cumulative IPC: 0.32215 (Simulation time: 0 hr 14 min 35 sec) 
Heartbeat CPU  0 instructions:  362000000 cycles:  920161539 heartbeat IPC: 0.34462 cumulative IPC: 0.32223 (Simulation time: 0 hr 14 min 37 sec) 
Heartbeat CPU  0 instructions:  363000000 cycles:  922956907 heartbeat IPC: 0.35773 cumulative IPC: 0.32235 (Simulation time: 0 hr 14 min 39 sec) 
Heartbeat CPU  0 instructions:  364000000 cycles:  925368657 heartbeat IPC: 0.41464 cumulative IPC: 0.32263 (Simulation time: 0 hr 14 min 41 sec) 
Heartbeat CPU  0 instructions:  365000000 cycles:  927794607 heartbeat IPC: 0.41221 cumulative IPC: 0.32289 (Simulation time: 0 hr 14 min 44 sec) 
Heartbeat CPU  0 instructions:  366000002 cycles:  929673373 heartbeat IPC: 0.53227 cumulative IPC: 0.32337 (Simulation time: 0 hr 14 min 46 sec) 
Heartbeat CPU  0 instructions:  367000000 cycles:  931429597 heartbeat IPC: 0.56940 cumulative IPC: 0.32389 (Simulation time: 0 hr 14 min 48 sec) 
Heartbeat CPU  0 instructions:  368000000 cycles:  934167035 heartbeat IPC: 0.36531 cumulative IPC: 0.32403 (Simulation time: 0 hr 14 min 50 sec) 
Heartbeat CPU  0 instructions:  369000000 cycles:  936970767 heartbeat IPC: 0.35667 cumulative IPC: 0.32414 (Simulation time: 0 hr 14 min 52 sec) 
Heartbeat CPU  0 instructions:  370000000 cycles:  939892675 heartbeat IPC: 0.34224 cumulative IPC: 0.32420 (Simulation time: 0 hr 14 min 55 sec) 
Heartbeat CPU  0 instructions:  371000003 cycles:  942555932 heartbeat IPC: 0.37548 cumulative IPC: 0.32437 (Simulation time: 0 hr 14 min 57 sec) 
Heartbeat CPU  0 instructions:  372000000 cycles:  945219433 heartbeat IPC: 0.37544 cumulative IPC: 0.32453 (Simulation time: 0 hr 15 min 0 sec) 
Heartbeat CPU  0 instructions:  373000002 cycles:  947890120 heartbeat IPC: 0.37444 cumulative IPC: 0.32469 (Simulation time: 0 hr 15 min 2 sec) 
Heartbeat CPU  0 instructions:  374000001 cycles:  950692006 heartbeat IPC: 0.35690 cumulative IPC: 0.32480 (Simulation time: 0 hr 15 min 4 sec) 
Heartbeat CPU  0 instructions:  375000000 cycles:  953461209 heartbeat IPC: 0.36111 cumulative IPC: 0.32491 (Simulation time: 0 hr 15 min 7 sec) 
Heartbeat CPU  0 instructions:  376000000 cycles:  956234170 heartbeat IPC: 0.36063 cumulative IPC: 0.32503 (Simulation time: 0 hr 15 min 9 sec) 
Heartbeat CPU  0 instructions:  377000002 cycles:  959000031 heartbeat IPC: 0.36155 cumulative IPC: 0.32515 (Simulation time: 0 hr 15 min 11 sec) 
Heartbeat CPU  0 instructions:  378000001 cycles:  961761294 heartbeat IPC: 0.36215 cumulative IPC: 0.32527 (Simulation time: 0 hr 15 min 14 sec) 
Heartbeat CPU  0 instructions:  379000000 cycles:  964614576 heartbeat IPC: 0.35047 cumulative IPC: 0.32535 (Simulation time: 0 hr 15 min 16 sec) 
Heartbeat CPU  0 instructions:  380000000 cycles:  967436921 heartbeat IPC: 0.35432 cumulative IPC: 0.32545 (Simulation time: 0 hr 15 min 18 sec) 
Heartbeat CPU  0 instructions:  381000002 cycles:  970316642 heartbeat IPC: 0.34726 cumulative IPC: 0.32552 (Simulation time: 0 hr 15 min 21 sec) 
Heartbeat CPU  0 instructions:  382000000 cycles:  973032298 heartbeat IPC: 0.36823 cumulative IPC: 0.32565 (Simulation time: 0 hr 15 min 23 sec) 
Heartbeat CPU  0 instructions:  383000001 cycles:  975865766 heartbeat IPC: 0.35292 cumulative IPC: 0.32574 (Simulation time: 0 hr 15 min 26 sec) 
Heartbeat CPU  0 instructions:  384000000 cycles:  978663288 heartbeat IPC: 0.35746 cumulative IPC: 0.32585 (Simulation time: 0 hr 15 min 28 sec) 
Heartbeat CPU  0 instructions:  385000002 cycles:  981382678 heartbeat IPC: 0.36773 cumulative IPC: 0.32598 (Simulation time: 0 hr 15 min 30 sec) 
Heartbeat CPU  0 instructions:  386000000 cycles:  983958564 heartbeat IPC: 0.38822 cumulative IPC: 0.32616 (Simulation time: 0 hr 15 min 33 sec) 
Heartbeat CPU  0 instructions:  387000000 cycles:  986568577 heartbeat IPC: 0.38314 cumulative IPC: 0.32633 (Simulation time: 0 hr 15 min 35 sec) 
Heartbeat CPU  0 instructions:  388000000 cycles:  989407672 heartbeat IPC: 0.35222 cumulative IPC: 0.32641 (Simulation time: 0 hr 15 min 37 sec) 
Heartbeat CPU  0 instructions:  389000000 cycles:  992069156 heartbeat IPC: 0.37573 cumulative IPC: 0.32656 (Simulation time: 0 hr 15 min 40 sec) 
Heartbeat CPU  0 instructions:  390000001 cycles:  995326825 heartbeat IPC: 0.30697 cumulative IPC: 0.32649 (Simulation time: 0 hr 15 min 42 sec) 
Heartbeat CPU  0 instructions:  391000001 cycles:  998099701 heartbeat IPC: 0.36064 cumulative IPC: 0.32659 (Simulation time: 0 hr 15 min 45 sec) 
Heartbeat CPU  0 instructions:  392000000 cycles: 1000786346 heartbeat IPC: 0.37221 cumulative IPC: 0.32673 (Simulation time: 0 hr 15 min 47 sec) 
Heartbeat CPU  0 instructions:  393000001 cycles: 1003574130 heartbeat IPC: 0.35871 cumulative IPC: 0.32683 (Simulation time: 0 hr 15 min 49 sec) 
Heartbeat CPU  0 instructions:  394000002 cycles: 1006319284 heartbeat IPC: 0.36428 cumulative IPC: 0.32694 (Simulation time: 0 hr 15 min 52 sec) 
Heartbeat CPU  0 instructions:  395000000 cycles: 1008964517 heartbeat IPC: 0.37804 cumulative IPC: 0.32709 (Simulation time: 0 hr 15 min 54 sec) 
Heartbeat CPU  0 instructions:  396000000 cycles: 1011828051 heartbeat IPC: 0.34922 cumulative IPC: 0.32716 (Simulation time: 0 hr 15 min 57 sec) 
Heartbeat CPU  0 instructions:  397000000 cycles: 1014629644 heartbeat IPC: 0.35694 cumulative IPC: 0.32726 (Simulation time: 0 hr 15 min 59 sec) 
Heartbeat CPU  0 instructions:  398000000 cycles: 1017157177 heartbeat IPC: 0.39564 cumulative IPC: 0.32745 (Simulation time: 0 hr 16 min 1 sec) 
Heartbeat CPU  0 instructions:  399000000 cycles: 1019993885 heartbeat IPC: 0.35252 cumulative IPC: 0.32752 (Simulation time: 0 hr 16 min 4 sec) 
Heartbeat CPU  0 instructions:  400000000 cycles: 1022579054 heartbeat IPC: 0.38682 cumulative IPC: 0.32769 (Simulation time: 0 hr 16 min 6 sec) 
Heartbeat CPU  0 instructions:  401000003 cycles: 1025316035 heartbeat IPC: 0.36537 cumulative IPC: 0.32780 (Simulation time: 0 hr 16 min 8 sec) 
Heartbeat CPU  0 instructions:  402000001 cycles: 1027907452 heartbeat IPC: 0.38589 cumulative IPC: 0.32797 (Simulation time: 0 hr 16 min 11 sec) 
Heartbeat CPU  0 instructions:  403000001 cycles: 1030372606 heartbeat IPC: 0.40565 cumulative IPC: 0.32817 (Simulation time: 0 hr 16 min 13 sec) 
Heartbeat CPU  0 instructions:  404000000 cycles: 1033236073 heartbeat IPC: 0.34923 cumulative IPC: 0.32824 (Simulation time: 0 hr 16 min 15 sec) 
Heartbeat CPU  0 instructions:  405000001 cycles: 1036076942 heartbeat IPC: 0.35201 cumulative IPC: 0.32831 (Simulation time: 0 hr 16 min 17 sec) 
Heartbeat CPU  0 instructions:  406000002 cycles: 1039015494 heartbeat IPC: 0.34030 cumulative IPC: 0.32835 (Simulation time: 0 hr 16 min 20 sec) 
Heartbeat CPU  0 instructions:  407000000 cycles: 1041660050 heartbeat IPC: 0.37813 cumulative IPC: 0.32849 (Simulation time: 0 hr 16 min 22 sec) 
Heartbeat CPU  0 instructions:  408000000 cycles: 1044395576 heartbeat IPC: 0.36556 cumulative IPC: 0.32860 (Simulation time: 0 hr 16 min 25 sec) 
Heartbeat CPU  0 instructions:  409000003 cycles: 1047123191 heartbeat IPC: 0.36662 cumulative IPC: 0.32871 (Simulation time: 0 hr 16 min 27 sec) 
Heartbeat CPU  0 instructions:  410000002 cycles: 1049761284 heartbeat IPC: 0.37906 cumulative IPC: 0.32885 (Simulation time: 0 hr 16 min 29 sec) 
Heartbeat CPU  0 instructions:  411000000 cycles: 1052506939 heartbeat IPC: 0.36421 cumulative IPC: 0.32895 (Simulation time: 0 hr 16 min 32 sec) 
Heartbeat CPU  0 instructions:  412000000 cycles: 1055171044 heartbeat IPC: 0.37536 cumulative IPC: 0.32908 (Simulation time: 0 hr 16 min 34 sec) 
Heartbeat CPU  0 instructions:  413000001 cycles: 1057981525 heartbeat IPC: 0.35581 cumulative IPC: 0.32916 (Simulation time: 0 hr 16 min 36 sec) 
Heartbeat CPU  0 instructions:  414000003 cycles: 1060596215 heartbeat IPC: 0.38246 cumulative IPC: 0.32931 (Simulation time: 0 hr 16 min 39 sec) 
Heartbeat CPU  0 instructions:  415000002 cycles: 1063271537 heartbeat IPC: 0.37379 cumulative IPC: 0.32943 (Simulation time: 0 hr 16 min 41 sec) 
Heartbeat CPU  0 instructions:  416000000 cycles: 1065956783 heartbeat IPC: 0.37240 cumulative IPC: 0.32955 (Simulation time: 0 hr 16 min 43 sec) 
Heartbeat CPU  0 instructions:  417000003 cycles: 1068687448 heartbeat IPC: 0.36621 cumulative IPC: 0.32966 (Simulation time: 0 hr 16 min 45 sec) 
Heartbeat CPU  0 instructions:  418000001 cycles: 1071460381 heartbeat IPC: 0.36063 cumulative IPC: 0.32975 (Simulation time: 0 hr 16 min 48 sec) 
Heartbeat CPU  0 instructions:  419000000 cycles: 1074275263 heartbeat IPC: 0.35525 cumulative IPC: 0.32982 (Simulation time: 0 hr 16 min 50 sec) 
Heartbeat CPU  0 instructions:  420000000 cycles: 1077011135 heartbeat IPC: 0.36551 cumulative IPC: 0.32992 (Simulation time: 0 hr 16 min 52 sec) 
Heartbeat CPU  0 instructions:  421000000 cycles: 1079514215 heartbeat IPC: 0.39951 cumulative IPC: 0.33010 (Simulation time: 0 hr 16 min 55 sec) 
Heartbeat CPU  0 instructions:  422000001 cycles: 1082355779 heartbeat IPC: 0.35192 cumulative IPC: 0.33016 (Simulation time: 0 hr 16 min 57 sec) 
Heartbeat CPU  0 instructions:  423000003 cycles: 1085047919 heartbeat IPC: 0.37145 cumulative IPC: 0.33028 (Simulation time: 0 hr 16 min 59 sec) 
Heartbeat CPU  0 instructions:  424000000 cycles: 1087606223 heartbeat IPC: 0.39088 cumulative IPC: 0.33044 (Simulation time: 0 hr 17 min 2 sec) 
Heartbeat CPU  0 instructions:  425000001 cycles: 1090351079 heartbeat IPC: 0.36432 cumulative IPC: 0.33053 (Simulation time: 0 hr 17 min 4 sec) 
Heartbeat CPU  0 instructions:  426000003 cycles: 1092877332 heartbeat IPC: 0.39584 cumulative IPC: 0.33070 (Simulation time: 0 hr 17 min 6 sec) 
Heartbeat CPU  0 instructions:  427000002 cycles: 1095450206 heartbeat IPC: 0.38867 cumulative IPC: 0.33085 (Simulation time: 0 hr 17 min 9 sec) 
Heartbeat CPU  0 instructions:  428000000 cycles: 1098071532 heartbeat IPC: 0.38149 cumulative IPC: 0.33098 (Simulation time: 0 hr 17 min 11 sec) 
Heartbeat CPU  0 instructions:  429000003 cycles: 1100621570 heartbeat IPC: 0.39215 cumulative IPC: 0.33114 (Simulation time: 0 hr 17 min 13 sec) 
Heartbeat CPU  0 instructions:  430000002 cycles: 1103379136 heartbeat IPC: 0.36264 cumulative IPC: 0.33123 (Simulation time: 0 hr 17 min 15 sec) 
Heartbeat CPU  0 instructions:  431000001 cycles: 1105875294 heartbeat IPC: 0.40062 cumulative IPC: 0.33140 (Simulation time: 0 hr 17 min 18 sec) 
Heartbeat CPU  0 instructions:  432000000 cycles: 1108576499 heartbeat IPC: 0.37020 cumulative IPC: 0.33151 (Simulation time: 0 hr 17 min 20 sec) 
Heartbeat CPU  0 instructions:  433000003 cycles: 1111242581 heartbeat IPC: 0.37508 cumulative IPC: 0.33162 (Simulation time: 0 hr 17 min 22 sec) 
Heartbeat CPU  0 instructions:  434000000 cycles: 1113781271 heartbeat IPC: 0.39390 cumulative IPC: 0.33178 (Simulation time: 0 hr 17 min 25 sec) 
Heartbeat CPU  0 instructions:  435000000 cycles: 1116575155 heartbeat IPC: 0.35792 cumulative IPC: 0.33185 (Simulation time: 0 hr 17 min 27 sec) 
Heartbeat CPU  0 instructions:  436000000 cycles: 1118850178 heartbeat IPC: 0.43956 cumulative IPC: 0.33209 (Simulation time: 0 hr 17 min 29 sec) 
Heartbeat CPU  0 instructions:  437000003 cycles: 1121452608 heartbeat IPC: 0.38426 cumulative IPC: 0.33223 (Simulation time: 0 hr 17 min 31 sec) 
Heartbeat CPU  0 instructions:  438000001 cycles: 1124347053 heartbeat IPC: 0.34549 cumulative IPC: 0.33226 (Simulation time: 0 hr 17 min 34 sec) 
Heartbeat CPU  0 instructions:  439000000 cycles: 1127321559 heartbeat IPC: 0.33619 cumulative IPC: 0.33228 (Simulation time: 0 hr 17 min 36 sec) 
Heartbeat CPU  0 instructions:  440000000 cycles: 1130086594 heartbeat IPC: 0.36166 cumulative IPC: 0.33236 (Simulation time: 0 hr 17 min 39 sec) 
Heartbeat CPU  0 instructions:  441000003 cycles: 1132882331 heartbeat IPC: 0.35769 cumulative IPC: 0.33242 (Simulation time: 0 hr 17 min 41 sec) 
Heartbeat CPU  0 instructions:  442000002 cycles: 1135647877 heartbeat IPC: 0.36159 cumulative IPC: 0.33250 (Simulation time: 0 hr 17 min 43 sec) 
Heartbeat CPU  0 instructions:  443000001 cycles: 1138484152 heartbeat IPC: 0.35257 cumulative IPC: 0.33256 (Simulation time: 0 hr 17 min 46 sec) 
Heartbeat CPU  0 instructions:  444000000 cycles: 1141259652 heartbeat IPC: 0.36030 cumulative IPC: 0.33263 (Simulation time: 0 hr 17 min 48 sec) 
Heartbeat CPU  0 instructions:  445000000 cycles: 1144124674 heartbeat IPC: 0.34904 cumulative IPC: 0.33268 (Simulation time: 0 hr 17 min 50 sec) 
Heartbeat CPU  0 instructions:  446000003 cycles: 1146974455 heartbeat IPC: 0.35091 cumulative IPC: 0.33273 (Simulation time: 0 hr 17 min 53 sec) 
Heartbeat CPU  0 instructions:  447000000 cycles: 1149788569 heartbeat IPC: 0.35535 cumulative IPC: 0.33279 (Simulation time: 0 hr 17 min 55 sec) 
Heartbeat CPU  0 instructions:  448000000 cycles: 1152322468 heartbeat IPC: 0.39465 cumulative IPC: 0.33294 (Simulation time: 0 hr 17 min 58 sec) 
Heartbeat CPU  0 instructions:  449000001 cycles: 1155191654 heartbeat IPC: 0.34853 cumulative IPC: 0.33298 (Simulation time: 0 hr 18 min 0 sec) 
Heartbeat CPU  0 instructions:  450000002 cycles: 1157963647 heartbeat IPC: 0.36075 cumulative IPC: 0.33305 (Simulation time: 0 hr 18 min 2 sec) 
Heartbeat CPU  0 instructions:  451000001 cycles: 1160655870 heartbeat IPC: 0.37144 cumulative IPC: 0.33315 (Simulation time: 0 hr 18 min 5 sec) 
Heartbeat CPU  0 instructions:  452000000 cycles: 1163479442 heartbeat IPC: 0.35416 cumulative IPC: 0.33321 (Simulation time: 0 hr 18 min 7 sec) 
Heartbeat CPU  0 instructions:  453000001 cycles: 1166275434 heartbeat IPC: 0.35766 cumulative IPC: 0.33327 (Simulation time: 0 hr 18 min 9 sec) 
Heartbeat CPU  0 instructions:  454000003 cycles: 1169133288 heartbeat IPC: 0.34991 cumulative IPC: 0.33332 (Simulation time: 0 hr 18 min 12 sec) 
Heartbeat CPU  0 instructions:  455000000 cycles: 1171848833 heartbeat IPC: 0.36825 cumulative IPC: 0.33341 (Simulation time: 0 hr 18 min 14 sec) 
Heartbeat CPU  0 instructions:  456000000 cycles: 1174678737 heartbeat IPC: 0.35337 cumulative IPC: 0.33346 (Simulation time: 0 hr 18 min 16 sec) 
Heartbeat CPU  0 instructions:  457000000 cycles: 1177404503 heartbeat IPC: 0.36687 cumulative IPC: 0.33355 (Simulation time: 0 hr 18 min 19 sec) 
Heartbeat CPU  0 instructions:  458000003 cycles: 1180195897 heartbeat IPC: 0.35825 cumulative IPC: 0.33361 (Simulation time: 0 hr 18 min 21 sec) 
Heartbeat CPU  0 instructions:  459000001 cycles: 1182931520 heartbeat IPC: 0.36555 cumulative IPC: 0.33369 (Simulation time: 0 hr 18 min 23 sec) 
Heartbeat CPU  0 instructions:  460000000 cycles: 1185652270 heartbeat IPC: 0.36755 cumulative IPC: 0.33378 (Simulation time: 0 hr 18 min 26 sec) 
Heartbeat CPU  0 instructions:  461000002 cycles: 1188439946 heartbeat IPC: 0.35872 cumulative IPC: 0.33384 (Simulation time: 0 hr 18 min 28 sec) 
Heartbeat CPU  0 instructions:  462000001 cycles: 1191176073 heartbeat IPC: 0.36548 cumulative IPC: 0.33392 (Simulation time: 0 hr 18 min 30 sec) 
Heartbeat CPU  0 instructions:  463000001 cycles: 1194005228 heartbeat IPC: 0.35346 cumulative IPC: 0.33397 (Simulation time: 0 hr 18 min 33 sec) 
Heartbeat CPU  0 instructions:  464000000 cycles: 1196808283 heartbeat IPC: 0.35675 cumulative IPC: 0.33403 (Simulation time: 0 hr 18 min 35 sec) 
Heartbeat CPU  0 instructions:  465000001 cycles: 1199439565 heartbeat IPC: 0.38004 cumulative IPC: 0.33414 (Simulation time: 0 hr 18 min 37 sec) 
Heartbeat CPU  0 instructions:  466000000 cycles: 1202160032 heartbeat IPC: 0.36758 cumulative IPC: 0.33422 (Simulation time: 0 hr 18 min 40 sec) 
Heartbeat CPU  0 instructions:  467000003 cycles: 1204869947 heartbeat IPC: 0.36902 cumulative IPC: 0.33431 (Simulation time: 0 hr 18 min 42 sec) 
Heartbeat CPU  0 instructions:  468000000 cycles: 1207509454 heartbeat IPC: 0.37886 cumulative IPC: 0.33442 (Simulation time: 0 hr 18 min 44 sec) 
Heartbeat CPU  0 instructions:  469000002 cycles: 1210090339 heartbeat IPC: 0.38746 cumulative IPC: 0.33454 (Simulation time: 0 hr 18 min 47 sec) 
Heartbeat CPU  0 instructions:  470000000 cycles: 1212799660 heartbeat IPC: 0.36910 cumulative IPC: 0.33463 (Simulation time: 0 hr 18 min 49 sec) 
Heartbeat CPU  0 instructions:  471000000 cycles: 1215394215 heartbeat IPC: 0.38542 cumulative IPC: 0.33474 (Simulation time: 0 hr 18 min 51 sec) 
Heartbeat CPU  0 instructions:  472000000 cycles: 1218065551 heartbeat IPC: 0.37434 cumulative IPC: 0.33484 (Simulation time: 0 hr 18 min 54 sec) 
Heartbeat CPU  0 instructions:  473000001 cycles: 1220995047 heartbeat IPC: 0.34136 cumulative IPC: 0.33486 (Simulation time: 0 hr 18 min 56 sec) 
Heartbeat CPU  0 instructions:  474000000 cycles: 1223644627 heartbeat IPC: 0.37742 cumulative IPC: 0.33496 (Simulation time: 0 hr 18 min 58 sec) 
Heartbeat CPU  0 instructions:  475000000 cycles: 1226479474 heartbeat IPC: 0.35275 cumulative IPC: 0.33500 (Simulation time: 0 hr 19 min 1 sec) 
Heartbeat CPU  0 instructions:  476000000 cycles: 1229290865 heartbeat IPC: 0.35570 cumulative IPC: 0.33505 (Simulation time: 0 hr 19 min 3 sec) 
Heartbeat CPU  0 instructions:  477000003 cycles: 1231996837 heartbeat IPC: 0.36955 cumulative IPC: 0.33514 (Simulation time: 0 hr 19 min 5 sec) 
Heartbeat CPU  0 instructions:  478000001 cycles: 1234660138 heartbeat IPC: 0.37547 cumulative IPC: 0.33523 (Simulation time: 0 hr 19 min 8 sec) 
Heartbeat CPU  0 instructions:  479000001 cycles: 1237267853 heartbeat IPC: 0.38348 cumulative IPC: 0.33534 (Simulation time: 0 hr 19 min 10 sec) 
Heartbeat CPU  0 instructions:  480000000 cycles: 1240136149 heartbeat IPC: 0.34864 cumulative IPC: 0.33538 (Simulation time: 0 hr 19 min 12 sec) 
Heartbeat CPU  0 instructions:  481000000 cycles: 1242782642 heartbeat IPC: 0.37786 cumulative IPC: 0.33548 (Simulation time: 0 hr 19 min 15 sec) 
Heartbeat CPU  0 instructions:  482000000 cycles: 1245418118 heartbeat IPC: 0.37944 cumulative IPC: 0.33558 (Simulation time: 0 hr 19 min 17 sec) 
Heartbeat CPU  0 instructions:  483000000 cycles: 1247942090 heartbeat IPC: 0.39620 cumulative IPC: 0.33571 (Simulation time: 0 hr 19 min 19 sec) 
Heartbeat CPU  0 instructions:  484000000 cycles: 1250635417 heartbeat IPC: 0.37129 cumulative IPC: 0.33580 (Simulation time: 0 hr 19 min 21 sec) 
Heartbeat CPU  0 instructions:  485000000 cycles: 1253299136 heartbeat IPC: 0.37541 cumulative IPC: 0.33589 (Simulation time: 0 hr 19 min 24 sec) 
Heartbeat CPU  0 instructions:  486000000 cycles: 1255922365 heartbeat IPC: 0.38121 cumulative IPC: 0.33599 (Simulation time: 0 hr 19 min 26 sec) 
Heartbeat CPU  0 instructions:  487000003 cycles: 1258731321 heartbeat IPC: 0.35601 cumulative IPC: 0.33604 (Simulation time: 0 hr 19 min 28 sec) 
Heartbeat CPU  0 instructions:  488000000 cycles: 1261541968 heartbeat IPC: 0.35579 cumulative IPC: 0.33609 (Simulation time: 0 hr 19 min 31 sec) 
Heartbeat CPU  0 instructions:  489000000 cycles: 1264256267 heartbeat IPC: 0.36842 cumulative IPC: 0.33616 (Simulation time: 0 hr 19 min 33 sec) 
Heartbeat CPU  0 instructions:  490000003 cycles: 1267019775 heartbeat IPC: 0.36186 cumulative IPC: 0.33623 (Simulation time: 0 hr 19 min 35 sec) 
Heartbeat CPU  0 instructions:  491000001 cycles: 1269750014 heartbeat IPC: 0.36627 cumulative IPC: 0.33630 (Simulation time: 0 hr 19 min 38 sec) 
Heartbeat CPU  0 instructions:  492000000 cycles: 1272533026 heartbeat IPC: 0.35932 cumulative IPC: 0.33635 (Simulation time: 0 hr 19 min 40 sec) 
Heartbeat CPU  0 instructions:  493000000 cycles: 1275219053 heartbeat IPC: 0.37230 cumulative IPC: 0.33643 (Simulation time: 0 hr 19 min 42 sec) 
Heartbeat CPU  0 instructions:  494000000 cycles: 1277859473 heartbeat IPC: 0.37873 cumulative IPC: 0.33653 (Simulation time: 0 hr 19 min 45 sec) 
Heartbeat CPU  0 instructions:  495000001 cycles: 1280695351 heartbeat IPC: 0.35262 cumulative IPC: 0.33657 (Simulation time: 0 hr 19 min 47 sec) 
Heartbeat CPU  0 instructions:  496000000 cycles: 1283456823 heartbeat IPC: 0.36213 cumulative IPC: 0.33663 (Simulation time: 0 hr 19 min 49 sec) 
Heartbeat CPU  0 instructions:  497000001 cycles: 1286233710 heartbeat IPC: 0.36012 cumulative IPC: 0.33668 (Simulation time: 0 hr 19 min 52 sec) 
Heartbeat CPU  0 instructions:  498000000 cycles: 1289002542 heartbeat IPC: 0.36116 cumulative IPC: 0.33674 (Simulation time: 0 hr 19 min 54 sec) 
Heartbeat CPU  0 instructions:  499000002 cycles: 1291743079 heartbeat IPC: 0.36489 cumulative IPC: 0.33681 (Simulation time: 0 hr 19 min 56 sec) 
Heartbeat CPU  0 instructions:  500000000 cycles: 1294429667 heartbeat IPC: 0.37222 cumulative IPC: 0.33689 (Simulation time: 0 hr 19 min 59 sec) 
Heartbeat CPU  0 instructions:  501000000 cycles: 1297181972 heartbeat IPC: 0.36333 cumulative IPC: 0.33695 (Simulation time: 0 hr 20 min 1 sec) 
Heartbeat CPU  0 instructions:  502000000 cycles: 1299968283 heartbeat IPC: 0.35890 cumulative IPC: 0.33700 (Simulation time: 0 hr 20 min 3 sec) 
Heartbeat CPU  0 instructions:  503000002 cycles: 1302751244 heartbeat IPC: 0.35933 cumulative IPC: 0.33705 (Simulation time: 0 hr 20 min 6 sec) 
Heartbeat CPU  0 instructions:  504000000 cycles: 1305594052 heartbeat IPC: 0.35176 cumulative IPC: 0.33709 (Simulation time: 0 hr 20 min 8 sec) 
Heartbeat CPU  0 instructions:  505000001 cycles: 1308188839 heartbeat IPC: 0.38539 cumulative IPC: 0.33719 (Simulation time: 0 hr 20 min 10 sec) 
Heartbeat CPU  0 instructions:  506000001 cycles: 1311016236 heartbeat IPC: 0.35368 cumulative IPC: 0.33723 (Simulation time: 0 hr 20 min 13 sec) 
Heartbeat CPU  0 instructions:  507000003 cycles: 1313873948 heartbeat IPC: 0.34993 cumulative IPC: 0.33726 (Simulation time: 0 hr 20 min 15 sec) 
Heartbeat CPU  0 instructions:  508000000 cycles: 1316611020 heartbeat IPC: 0.36535 cumulative IPC: 0.33732 (Simulation time: 0 hr 20 min 17 sec) 
Heartbeat CPU  0 instructions:  509000001 cycles: 1319196758 heartbeat IPC: 0.38674 cumulative IPC: 0.33743 (Simulation time: 0 hr 20 min 20 sec) 
Heartbeat CPU  0 instructions:  510000003 cycles: 1321922627 heartbeat IPC: 0.36686 cumulative IPC: 0.33749 (Simulation time: 0 hr 20 min 22 sec) 
Heartbeat CPU  0 instructions:  511000001 cycles: 1324322434 heartbeat IPC: 0.41670 cumulative IPC: 0.33765 (Simulation time: 0 hr 20 min 24 sec) 
Heartbeat CPU  0 instructions:  512000000 cycles: 1327067884 heartbeat IPC: 0.36424 cumulative IPC: 0.33771 (Simulation time: 0 hr 20 min 26 sec) 
Heartbeat CPU  0 instructions:  513000001 cycles: 1329754548 heartbeat IPC: 0.37221 cumulative IPC: 0.33779 (Simulation time: 0 hr 20 min 29 sec) 
Heartbeat CPU  0 instructions:  514000002 cycles: 1332430985 heartbeat IPC: 0.37363 cumulative IPC: 0.33786 (Simulation time: 0 hr 20 min 31 sec) 
Heartbeat CPU  0 instructions:  515000001 cycles: 1334932610 heartbeat IPC: 0.39974 cumulative IPC: 0.33799 (Simulation time: 0 hr 20 min 33 sec) 
Heartbeat CPU  0 instructions:  516000000 cycles: 1337419974 heartbeat IPC: 0.40203 cumulative IPC: 0.33812 (Simulation time: 0 hr 20 min 35 sec) 
Heartbeat CPU  0 instructions:  517000002 cycles: 1340249714 heartbeat IPC: 0.35339 cumulative IPC: 0.33815 (Simulation time: 0 hr 20 min 38 sec) 
Heartbeat CPU  0 instructions:  518000001 cycles: 1343072059 heartbeat IPC: 0.35431 cumulative IPC: 0.33819 (Simulation time: 0 hr 20 min 40 sec) 
Heartbeat CPU  0 instructions:  519000001 cycles: 1345768142 heartbeat IPC: 0.37091 cumulative IPC: 0.33826 (Simulation time: 0 hr 20 min 42 sec) 
Heartbeat CPU  0 instructions:  520000000 cycles: 1348570392 heartbeat IPC: 0.35686 cumulative IPC: 0.33830 (Simulation time: 0 hr 20 min 45 sec) 
Heartbeat CPU  0 instructions:  521000000 cycles: 1351225738 heartbeat IPC: 0.37660 cumulative IPC: 0.33839 (Simulation time: 0 hr 20 min 47 sec) 
Heartbeat CPU  0 instructions:  522000000 cycles: 1353846743 heartbeat IPC: 0.38153 cumulative IPC: 0.33848 (Simulation time: 0 hr 20 min 49 sec) 
Heartbeat CPU  0 instructions:  523000002 cycles: 1356297253 heartbeat IPC: 0.40808 cumulative IPC: 0.33861 (Simulation time: 0 hr 20 min 51 sec) 
Heartbeat CPU  0 instructions:  524000000 cycles: 1359068402 heartbeat IPC: 0.36086 cumulative IPC: 0.33866 (Simulation time: 0 hr 20 min 54 sec) 
Heartbeat CPU  0 instructions:  525000000 cycles: 1361684597 heartbeat IPC: 0.38223 cumulative IPC: 0.33875 (Simulation time: 0 hr 20 min 56 sec) 
Heartbeat CPU  0 instructions:  526000000 cycles: 1364388409 heartbeat IPC: 0.36985 cumulative IPC: 0.33882 (Simulation time: 0 hr 20 min 58 sec) 
Heartbeat CPU  0 instructions:  527000000 cycles: 1366709728 heartbeat IPC: 0.43079 cumulative IPC: 0.33899 (Simulation time: 0 hr 21 min 1 sec) 
Heartbeat CPU  0 instructions:  528000000 cycles: 1369229197 heartbeat IPC: 0.39691 cumulative IPC: 0.33911 (Simulation time: 0 hr 21 min 3 sec) 
Heartbeat CPU  0 instructions:  529000001 cycles: 1371629595 heartbeat IPC: 0.41660 cumulative IPC: 0.33925 (Simulation time: 0 hr 21 min 5 sec) 
Heartbeat CPU  0 instructions:  530000000 cycles: 1373899862 heartbeat IPC: 0.44048 cumulative IPC: 0.33943 (Simulation time: 0 hr 21 min 7 sec) 
Heartbeat CPU  0 instructions:  531000001 cycles: 1376510704 heartbeat IPC: 0.38302 cumulative IPC: 0.33952 (Simulation time: 0 hr 21 min 10 sec) 
Heartbeat CPU  0 instructions:  532000000 cycles: 1378664486 heartbeat IPC: 0.46430 cumulative IPC: 0.33973 (Simulation time: 0 hr 21 min 12 sec) 
Heartbeat CPU  0 instructions:  533000000 cycles: 1381464836 heartbeat IPC: 0.35710 cumulative IPC: 0.33977 (Simulation time: 0 hr 21 min 14 sec) 
Heartbeat CPU  0 instructions:  534000003 cycles: 1383826098 heartbeat IPC: 0.42350 cumulative IPC: 0.33993 (Simulation time: 0 hr 21 min 16 sec) 
Heartbeat CPU  0 instructions:  535000002 cycles: 1386572516 heartbeat IPC: 0.36411 cumulative IPC: 0.33998 (Simulation time: 0 hr 21 min 18 sec) 
Heartbeat CPU  0 instructions:  536000000 cycles: 1388959668 heartbeat IPC: 0.41891 cumulative IPC: 0.34013 (Simulation time: 0 hr 21 min 20 sec) 
Heartbeat CPU  0 instructions:  537000002 cycles: 1391495552 heartbeat IPC: 0.39434 cumulative IPC: 0.34023 (Simulation time: 0 hr 21 min 23 sec) 
Heartbeat CPU  0 instructions:  538000000 cycles: 1393982346 heartbeat IPC: 0.40212 cumulative IPC: 0.34035 (Simulation time: 0 hr 21 min 25 sec) 
Heartbeat CPU  0 instructions:  539000001 cycles: 1396524447 heartbeat IPC: 0.39338 cumulative IPC: 0.34046 (Simulation time: 0 hr 21 min 27 sec) 
Heartbeat CPU  0 instructions:  540000000 cycles: 1399068771 heartbeat IPC: 0.39303 cumulative IPC: 0.34056 (Simulation time: 0 hr 21 min 29 sec) 
Heartbeat CPU  0 instructions:  541000001 cycles: 1401834013 heartbeat IPC: 0.36163 cumulative IPC: 0.34061 (Simulation time: 0 hr 21 min 32 sec) 
Heartbeat CPU  0 instructions:  542000001 cycles: 1404497978 heartbeat IPC: 0.37538 cumulative IPC: 0.34068 (Simulation time: 0 hr 21 min 34 sec) 
Heartbeat CPU  0 instructions:  543000002 cycles: 1407295666 heartbeat IPC: 0.35744 cumulative IPC: 0.34071 (Simulation time: 0 hr 21 min 36 sec) 
Heartbeat CPU  0 instructions:  544000000 cycles: 1409950041 heartbeat IPC: 0.37674 cumulative IPC: 0.34079 (Simulation time: 0 hr 21 min 39 sec) 
Heartbeat CPU  0 instructions:  545000001 cycles: 1412616666 heartbeat IPC: 0.37501 cumulative IPC: 0.34086 (Simulation time: 0 hr 21 min 41 sec) 
Heartbeat CPU  0 instructions:  546000001 cycles: 1415338775 heartbeat IPC: 0.36736 cumulative IPC: 0.34091 (Simulation time: 0 hr 21 min 43 sec) 
Heartbeat CPU  0 instructions:  547000000 cycles: 1418006393 heartbeat IPC: 0.37487 cumulative IPC: 0.34098 (Simulation time: 0 hr 21 min 45 sec) 
Heartbeat CPU  0 instructions:  548000000 cycles: 1420569111 heartbeat IPC: 0.39021 cumulative IPC: 0.34108 (Simulation time: 0 hr 21 min 48 sec) 
Heartbeat CPU  0 instructions:  549000000 cycles: 1423097214 heartbeat IPC: 0.39555 cumulative IPC: 0.34118 (Simulation time: 0 hr 21 min 50 sec) 
Heartbeat CPU  0 instructions:  550000001 cycles: 1425984655 heartbeat IPC: 0.34633 cumulative IPC: 0.34119 (Simulation time: 0 hr 21 min 52 sec) 
Heartbeat CPU  0 instructions:  551000003 cycles: 1428643829 heartbeat IPC: 0.37606 cumulative IPC: 0.34126 (Simulation time: 0 hr 21 min 54 sec) 
Heartbeat CPU  0 instructions:  552000000 cycles: 1431232625 heartbeat IPC: 0.38628 cumulative IPC: 0.34135 (Simulation time: 0 hr 21 min 57 sec) 
Heartbeat CPU  0 instructions:  553000002 cycles: 1433858107 heartbeat IPC: 0.38088 cumulative IPC: 0.34143 (Simulation time: 0 hr 21 min 59 sec) 
Heartbeat CPU  0 instructions:  554000000 cycles: 1436319612 heartbeat IPC: 0.40625 cumulative IPC: 0.34155 (Simulation time: 0 hr 22 min 1 sec) 
Heartbeat CPU  0 instructions:  555000003 cycles: 1439086422 heartbeat IPC: 0.36143 cumulative IPC: 0.34159 (Simulation time: 0 hr 22 min 4 sec) 
Heartbeat CPU  0 instructions:  556000000 cycles: 1441739841 heartbeat IPC: 0.37687 cumulative IPC: 0.34166 (Simulation time: 0 hr 22 min 6 sec) 
Heartbeat CPU  0 instructions:  557000000 cycles: 1444373107 heartbeat IPC: 0.37976 cumulative IPC: 0.34174 (Simulation time: 0 hr 22 min 8 sec) 
Heartbeat CPU  0 instructions:  558000001 cycles: 1447198300 heartbeat IPC: 0.35396 cumulative IPC: 0.34176 (Simulation time: 0 hr 22 min 10 sec) 
Heartbeat CPU  0 instructions:  559000001 cycles: 1450111429 heartbeat IPC: 0.34327 cumulative IPC: 0.34177 (Simulation time: 0 hr 22 min 13 sec) 
Heartbeat CPU  0 instructions:  560000000 cycles: 1452941416 heartbeat IPC: 0.35336 cumulative IPC: 0.34179 (Simulation time: 0 hr 22 min 15 sec) 
Heartbeat CPU  0 instructions:  561000002 cycles: 1455698853 heartbeat IPC: 0.36266 cumulative IPC: 0.34183 (Simulation time: 0 hr 22 min 17 sec) 
Heartbeat CPU  0 instructions:  562000002 cycles: 1458345243 heartbeat IPC: 0.37787 cumulative IPC: 0.34190 (Simulation time: 0 hr 22 min 20 sec) 
Heartbeat CPU  0 instructions:  563000000 cycles: 1461136135 heartbeat IPC: 0.35831 cumulative IPC: 0.34194 (Simulation time: 0 hr 22 min 22 sec) 
Heartbeat CPU  0 instructions:  564000000 cycles: 1463853139 heartbeat IPC: 0.36805 cumulative IPC: 0.34199 (Simulation time: 0 hr 22 min 24 sec) 
Heartbeat CPU  0 instructions:  565000000 cycles: 1466636442 heartbeat IPC: 0.35929 cumulative IPC: 0.34202 (Simulation time: 0 hr 22 min 27 sec) 
Heartbeat CPU  0 instructions:  566000001 cycles: 1469161858 heartbeat IPC: 0.39597 cumulative IPC: 0.34212 (Simulation time: 0 hr 22 min 29 sec) 
Heartbeat CPU  0 instructions:  567000000 cycles: 1471963223 heartbeat IPC: 0.35697 cumulative IPC: 0.34215 (Simulation time: 0 hr 22 min 31 sec) 
Heartbeat CPU  0 instructions:  568000000 cycles: 1474617694 heartbeat IPC: 0.37672 cumulative IPC: 0.34222 (Simulation time: 0 hr 22 min 34 sec) 
Heartbeat CPU  0 instructions:  569000001 cycles: 1477446583 heartbeat IPC: 0.35350 cumulative IPC: 0.34225 (Simulation time: 0 hr 22 min 36 sec) 
Heartbeat CPU  0 instructions:  570000002 cycles: 1479925634 heartbeat IPC: 0.40338 cumulative IPC: 0.34236 (Simulation time: 0 hr 22 min 38 sec) 
Heartbeat CPU  0 instructions:  571000000 cycles: 1482627714 heartbeat IPC: 0.37008 cumulative IPC: 0.34241 (Simulation time: 0 hr 22 min 40 sec) 
Heartbeat CPU  0 instructions:  572000000 cycles: 1485240617 heartbeat IPC: 0.38272 cumulative IPC: 0.34249 (Simulation time: 0 hr 22 min 43 sec) 
Heartbeat CPU  0 instructions:  573000001 cycles: 1487638837 heartbeat IPC: 0.41698 cumulative IPC: 0.34262 (Simulation time: 0 hr 22 min 45 sec) 
Heartbeat CPU  0 instructions:  574000001 cycles: 1490326661 heartbeat IPC: 0.37205 cumulative IPC: 0.34267 (Simulation time: 0 hr 22 min 47 sec) 
Heartbeat CPU  0 instructions:  575000002 cycles: 1492880995 heartbeat IPC: 0.39149 cumulative IPC: 0.34276 (Simulation time: 0 hr 22 min 49 sec) 
Heartbeat CPU  0 instructions:  576000000 cycles: 1495500222 heartbeat IPC: 0.38179 cumulative IPC: 0.34284 (Simulation time: 0 hr 22 min 51 sec) 
Heartbeat CPU  0 instructions:  577000000 cycles: 1498072286 heartbeat IPC: 0.38879 cumulative IPC: 0.34292 (Simulation time: 0 hr 22 min 54 sec) 
Heartbeat CPU  0 instructions:  578000002 cycles: 1500335361 heartbeat IPC: 0.44188 cumulative IPC: 0.34308 (Simulation time: 0 hr 22 min 56 sec) 
Heartbeat CPU  0 instructions:  579000000 cycles: 1503129529 heartbeat IPC: 0.35789 cumulative IPC: 0.34311 (Simulation time: 0 hr 22 min 58 sec) 
Heartbeat CPU  0 instructions:  580000000 cycles: 1505929991 heartbeat IPC: 0.35708 cumulative IPC: 0.34314 (Simulation time: 0 hr 23 min 1 sec) 
Heartbeat CPU  0 instructions:  581000001 cycles: 1508654189 heartbeat IPC: 0.36708 cumulative IPC: 0.34319 (Simulation time: 0 hr 23 min 3 sec) 
Heartbeat CPU  0 instructions:  582000001 cycles: 1511548535 heartbeat IPC: 0.34550 cumulative IPC: 0.34319 (Simulation time: 0 hr 23 min 5 sec) 
Heartbeat CPU  0 instructions:  583000000 cycles: 1514394560 heartbeat IPC: 0.35137 cumulative IPC: 0.34321 (Simulation time: 0 hr 23 min 8 sec) 
Heartbeat CPU  0 instructions:  584000000 cycles: 1517047396 heartbeat IPC: 0.37696 cumulative IPC: 0.34327 (Simulation time: 0 hr 23 min 10 sec) 
Heartbeat CPU  0 instructions:  585000003 cycles: 1519634190 heartbeat IPC: 0.38658 cumulative IPC: 0.34335 (Simulation time: 0 hr 23 min 12 sec) 
Heartbeat CPU  0 instructions:  586000000 cycles: 1522513978 heartbeat IPC: 0.34725 cumulative IPC: 0.34336 (Simulation time: 0 hr 23 min 15 sec) 
Heartbeat CPU  0 instructions:  587000000 cycles: 1525187382 heartbeat IPC: 0.37405 cumulative IPC: 0.34342 (Simulation time: 0 hr 23 min 17 sec) 
Heartbeat CPU  0 instructions:  588000000 cycles: 1527955773 heartbeat IPC: 0.36122 cumulative IPC: 0.34345 (Simulation time: 0 hr 23 min 19 sec) 
Heartbeat CPU  0 instructions:  589000000 cycles: 1530732230 heartbeat IPC: 0.36017 cumulative IPC: 0.34348 (Simulation time: 0 hr 23 min 22 sec) 
Heartbeat CPU  0 instructions:  590000001 cycles: 1533136804 heartbeat IPC: 0.41587 cumulative IPC: 0.34361 (Simulation time: 0 hr 23 min 24 sec) 
Heartbeat CPU  0 instructions:  591000003 cycles: 1535772297 heartbeat IPC: 0.37944 cumulative IPC: 0.34367 (Simulation time: 0 hr 23 min 26 sec) 
Heartbeat CPU  0 instructions:  592000000 cycles: 1538536297 heartbeat IPC: 0.36179 cumulative IPC: 0.34371 (Simulation time: 0 hr 23 min 28 sec) 
Heartbeat CPU  0 instructions:  593000000 cycles: 1541243845 heartbeat IPC: 0.36934 cumulative IPC: 0.34376 (Simulation time: 0 hr 23 min 31 sec) 
Heartbeat CPU  0 instructions:  594000000 cycles: 1543459677 heartbeat IPC: 0.45130 cumulative IPC: 0.34392 (Simulation time: 0 hr 23 min 33 sec) 
Heartbeat CPU  0 instructions:  595000001 cycles: 1545979925 heartbeat IPC: 0.39679 cumulative IPC: 0.34401 (Simulation time: 0 hr 23 min 35 sec) 
Heartbeat CPU  0 instructions:  596000000 cycles: 1548774209 heartbeat IPC: 0.35787 cumulative IPC: 0.34404 (Simulation time: 0 hr 23 min 37 sec) 
Heartbeat CPU  0 instructions:  597000000 cycles: 1551655084 heartbeat IPC: 0.34712 cumulative IPC: 0.34405 (Simulation time: 0 hr 23 min 40 sec) 
Heartbeat CPU  0 instructions:  598000000 cycles: 1554196810 heartbeat IPC: 0.39343 cumulative IPC: 0.34413 (Simulation time: 0 hr 23 min 42 sec) 
Heartbeat CPU  0 instructions:  599000000 cycles: 1557073237 heartbeat IPC: 0.34765 cumulative IPC: 0.34414 (Simulation time: 0 hr 23 min 44 sec) 
Heartbeat CPU  0 instructions:  600000000 cycles: 1559467793 heartbeat IPC: 0.41761 cumulative IPC: 0.34426 (Simulation time: 0 hr 23 min 46 sec) 
Finished CPU 0 instructions: 500000000 cycles: 1452383274 cumulative IPC: 0.34426 (Simulation time: 0 hr 23 min 46 sec) 

ChampSim completed all CPUs

[ROI Statistics]
Core_0_instructions 500000000
Core_0_cycles 1452383274
Core_0_IPC 0.34426

Core_0_branch_prediction_accuracy 85.18932
Core_0_branch_MPKI 24.43069
Core_0_average_ROB_occupancy_at_mispredict 38.24974

Core_0_L1D_total_access 156067860
Core_0_L1D_total_hit 153752239
Core_0_L1D_total_miss 2315621
Core_0_L1D_loads 90198885
Core_0_L1D_load_hit 89369350
Core_0_L1D_load_miss 829535
Core_0_L1D_RFOs 65868975
Core_0_L1D_RFO_hit 64382889
Core_0_L1D_RFO_miss 1486086
Core_0_L1D_prefetches 0
Core_0_L1D_prefetch_hit 0
Core_0_L1D_prefetch_miss 0
Core_0_L1D_writebacks 0
Core_0_L1D_writeback_hit 0
Core_0_L1D_writeback_miss 0
Core_0_L1D_prefetch_requested 0
Core_0_L1D_prefetch_dropped 0
Core_0_L1D_prefetch_issued 0
Core_0_L1D_prefetch_filled 0
Core_0_L1D_prefetch_useful 0
Core_0_L1D_prefetch_useless 0
Core_0_L1D_prefetch_late 0
Core_0_L1D_average_miss_latency 1169.34920

Core_0_L1D_rq_access 125888917
Core_0_L1D_rq_forward 0
Core_0_L1D_rq_merged 35599581
Core_0_L1D_rq_to_cache 90288843
Core_0_L1D_rq_full 0

Core_0_L1D_wq_access 70505122
Core_0_L1D_wq_forward 493
Core_0_L1D_wq_merged 423537
Core_0_L1D_wq_to_cache 70081585
Core_0_L1D_wq_full 156764814

Core_0_L1D_pq_access 0
Core_0_L1D_pq_forward 0
Core_0_L1D_pq_merged 0
Core_0_L1D_pq_to_cache 0
Core_0_L1D_pq_full 0

Core_0_L1D_acc_epochs 1520664
Core_0_L1D_acc_level_0 1520664
Core_0_L1D_acc_level_1 0
Core_0_L1D_acc_level_2 0
Core_0_L1D_acc_level_3 0
Core_0_L1D_acc_level_4 0
Core_0_L1D_acc_level_5 0
Core_0_L1D_acc_level_6 0
Core_0_L1D_acc_level_7 0
Core_0_L1D_acc_level_8 0
Core_0_L1D_acc_level_9 0

Core_0_L1I_total_access 99488552
Core_0_L1I_total_hit 97543605
Core_0_L1I_total_miss 1944947
Core_0_L1I_loads 99488552
Core_0_L1I_load_hit 97543605
Core_0_L1I_load_miss 1944947
Core_0_L1I_RFOs 0
Core_0_L1I_RFO_hit 0
Core_0_L1I_RFO_miss 0
Core_0_L1I_prefetches 0
Core_0_L1I_prefetch_hit 0
Core_0_L1I_prefetch_miss 0
Core_0_L1I_writebacks 0
Core_0_L1I_writeback_hit 0
Core_0_L1I_writeback_miss 0
Core_0_L1I_prefetch_requested 0
Core_0_L1I_prefetch_dropped 0
Core_0_L1I_prefetch_issued 0
Core_0_L1I_prefetch_filled 0
Core_0_L1I_prefetch_useful 0
Core_0_L1I_prefetch_useless 0
Core_0_L1I_prefetch_late 0
Core_0_L1I_average_miss_latency 12.66109

Core_0_L1I_rq_access 499999934
Core_0_L1I_rq_forward 0
Core_0_L1I_rq_merged 399798398
Core_0_L1I_rq_to_cache 100201536
Core_0_L1I_rq_full 0

Core_0_L1I_wq_access 0
Core_0_L1I_wq_forward 0
Core_0_L1I_wq_merged 0
Core_0_L1I_wq_to_cache 0
Core_0_L1I_wq_full 0

Core_0_L1I_pq_access 0
Core_0_L1I_pq_forward 0
Core_0_L1I_pq_merged 0
Core_0_L1I_pq_to_cache 0
Core_0_L1I_pq_full 0

Core_0_L1I_acc_epochs 1520664
Core_0_L1I_acc_level_0 1520664
Core_0_L1I_acc_level_1 0
Core_0_L1I_acc_level_2 0
Core_0_L1I_acc_level_3 0
Core_0_L1I_acc_level_4 0
Core_0_L1I_acc_level_5 0
Core_0_L1I_acc_level_6 0
Core_0_L1I_acc_level_7 0
Core_0_L1I_acc_level_8 0
Core_0_L1I_acc_level_9 0

Core_0_L2C_total_access 6570927
Core_0_L2C_total_hit 5193755
Core_0_L2C_total_miss 1377172
Core_0_L2C_loads 2774459
Core_0_L2C_load_hit 2536099
Core_0_L2C_load_miss 238360
Core_0_L2C_RFOs 1486042
Core_0_L2C_RFO_hit 602779
Core_0_L2C_RFO_miss 883263
Core_0_L2C_prefetches 556248
Core_0_L2C_prefetch_hit 303186
Core_0_L2C_prefetch_miss 253062
Core_0_L2C_writebacks 1754178
Core_0_L2C_writeback_hit 1751691
Core_0_L2C_writeback_miss 2487
Core_0_L2C_prefetch_requested 1392013
Core_0_L2C_prefetch_dropped 0
Core_0_L2C_prefetch_issued 1392013
Core_0_L2C_prefetch_filled 284523
Core_0_L2C_prefetch_useful 238733
Core_0_L2C_prefetch_useless 45521
Core_0_L2C_prefetch_late 9643
Core_0_L2C_average_miss_latency 1998.64918

Core_0_L2C_rq_access 4260568
Core_0_L2C_rq_forward 0
Core_0_L2C_rq_merged 0
Core_0_L2C_rq_to_cache 4260501
Core_0_L2C_rq_full 0

Core_0_L2C_wq_access 1754178
Core_0_L2C_wq_forward 67
Core_0_L2C_wq_merged 0
Core_0_L2C_wq_to_cache 1754178
Core_0_L2C_wq_full 0

Core_0_L2C_pq_access 1392013
Core_0_L2C_pq_forward 0
Core_0_L2C_pq_merged 0
Core_0_L2C_pq_to_cache 1392013
Core_0_L2C_pq_full 0

Core_0_L2C_acc_epochs 1520664
Core_0_L2C_acc_level_0 1478818
Core_0_L2C_acc_level_1 13161
Core_0_L2C_acc_level_2 9039
Core_0_L2C_acc_level_3 3126
Core_0_L2C_acc_level_4 1592
Core_0_L2C_acc_level_5 6167
Core_0_L2C_acc_level_6 1287
Core_0_L2C_acc_level_7 1128
Core_0_L2C_acc_level_8 746
Core_0_L2C_acc_level_9 5600

Core_0_LLC_total_access 3082652
Core_0_LLC_total_hit 1131476
Core_0_LLC_total_miss 1951176
Core_0_LLC_loads 228826
Core_0_LLC_load_hit 149862
Core_0_LLC_load_miss 78964
Core_0_LLC_RFOs 883253
Core_0_LLC_RFO_hit 132328
Core_0_LLC_RFO_miss 750925
Core_0_LLC_prefetches 937044
Core_0_LLC_prefetch_hit 494888
Core_0_LLC_prefetch_miss 442156
Core_0_LLC_writebacks 1033529
Core_0_LLC_writeback_hit 354398
Core_0_LLC_writeback_miss 679131
Core_0_LLC_prefetch_requested 0
Core_0_LLC_prefetch_dropped 0
Core_0_LLC_prefetch_issued 0
Core_0_LLC_prefetch_filled 500605
Core_0_LLC_prefetch_useful 47717
Core_0_LLC_prefetch_useless 438528
Core_0_LLC_prefetch_late 337
Core_0_LLC_average_miss_latency 1558.66352

Core_0_LLC_rq_access 1112083
Core_0_LLC_rq_forward 0
Core_0_LLC_rq_merged 0
Core_0_LLC_rq_to_cache 1112079
Core_0_LLC_rq_full 0

Core_0_LLC_wq_access 1033529
Core_0_LLC_wq_forward 4
Core_0_LLC_wq_merged 0
Core_0_LLC_wq_to_cache 1033529
Core_0_LLC_wq_full 0

Core_0_LLC_pq_access 1027972
Core_0_LLC_pq_forward 0
Core_0_LLC_pq_merged 0
Core_0_LLC_pq_to_cache 1027972
Core_0_LLC_pq_full 0

Core_0_LLC_acc_epochs 1522918
Core_0_LLC_acc_level_0 1480755
Core_0_LLC_acc_level_1 22764
Core_0_LLC_acc_level_2 11489
Core_0_LLC_acc_level_3 852
Core_0_LLC_acc_level_4 51
Core_0_LLC_acc_level_5 6041
Core_0_LLC_acc_level_6 42
Core_0_LLC_acc_level_7 89
Core_0_LLC_acc_level_8 17
Core_0_LLC_acc_level_9 818

Core_0_major_page_fault 0
Core_0_minor_page_fault 6639

[Bingo] PHT Access: 195755
[Bingo] PHT Hit PC+Addr: 64281
[Bingo] PHT Hit PC+Offs: 110884
[Bingo] PHT Miss: 20590
[Bingo] Prefetch PC+Addr: 0
[Bingo] Prefetch PC+Offs: 0
[Bingo] Useful PC+Addr: 0
[Bingo] Useful PC+Offs: 0
[Bingo] Useless PC+Addr: 0
[Bingo] Useless PC+Offs: 0
[Bingo] L1 Prefetch per Region: 0.00000
[Bingo] L2 Prefetch per Region: 4.60448
[Bingo] L3 Prefetch per Region: 4.35414
[Bingo] No Prefetch per Region: 23.04138
[Bingo] Number of Voters Mean: 6.52033
[Bingo] Number of Voters SD: 3.89193

Channel_0_RQ_row_buffer_hit 328445
Channel_0_RQ_row_buffer_miss 943594
Channel_0_WQ_row_buffer_hit 93668
Channel_0_WQ_row_buffer_miss 779270
Channel_0_WQ_full 0
Channel_0_dbus_congested 1913299

avg_congested_cycle 104

DRAM_bw_pochs 6091672
DRAM_bw_level_0 5377742
DRAM_bw_level_1 202739
DRAM_bw_level_2 0
DRAM_bw_level_3 511191
