*************************************************
   ChampSim Multicore Out-of-Order Simulator
   Last compiled: Dec 11 2024 17:59:53
*************************************************
parsing config file: /home/functionmain/桌面/Pythia/config/nopref.ini

trace_0 /home/functionmain/桌面/Pythia/traces/445.gobmk-36B.champsimtrace.xz
adding L2C_PREFETCHER: NONE
Initialize SHIP state
warmup_instructions 100000000
simulation_instructions 500000000
champsim_seed 171
measure_ipc 0
measure_ipc_epoch 1000
measure_dram_bw 1
measure_dram_bw_epoch 256
measure_cache_acc 1
measure_cache_acc_epoch 1024
l1d_perfect 0
l2c_perfect 0
llc_perfect 0
l1d_semi_perfect 0
l2c_semi_perfect 0
llc_semi_perfect 0
semi_perfect_cache_page_buffer_size 64

num_cpus 1
cpu_freq 4000
dram_io_freq 2400
page_size 4096
block_size 64
max_read_per_cycle 8
max_fill_per_cycle 1
dram_channels 1
log2_dram_channels 0
dram_ranks 1
dram_banks 8
dram_rows 65536
dram_columns 128
dram_row_size 8
dram_size 4096
dram_pages 1048576

fetch_width 6
decode_width 6
exec_width 4
lq_width 2
sq_width 2
retire_width 4
scheduler_size 128
branch_mispredict_penalty 20
rob_size 256
lq_size 72
sq_size 56
num_instr_destinations_sparc 4
num_instr_destinations 2
num_instr_sources 4

itlb_set 16
itlb_way 8
itlb_rq_size 16
itlb_wq_size 16
itlb_pq_size 0
itlb_mshr_size 8
itlb_latency 1

dtlb_set 16
dtlb_way 4
dtlb_rq_size 16
dtlb_wq_size 16
dtlb_pq_size 0
dtlb_mshr_size 8
dtlb_latency 1

stlb_set 128
stlb_way 12
stlb_rq_size 32
stlb_wq_size 32
stlb_pq_size 0
stlb_mshr_size 16
stlb_latency 8

l1i_size 32
l1i_set 64
l1i_way 8
l1i_rq_size 64
l1i_wq_size 64
l1i_pq_size 8
l1i_mshr_size 8
l1i_latency 1

l1d_size 32
l1d_set 64
l1d_way 8
l1d_rq_size 64
l1d_wq_size 64
l1d_pq_size 8
l1d_mshr_size 16
l1d_latency 4

l2c_size 256
l2c_set 512
l2c_way 8
l2c_rq_size 32
l2c_wq_size 32
l2c_pq_size 32
l2c_mshr_size 32
l2c_latency 10

llc_size 2048
llc_set 2048
llc_way 16
llc_rq_size 32
llc_wq_size 32
llc_pq_size 32
llc_mshr_size 64
llc_latency 20

dram_channel_width 8
dram_wq_size 64
dram_rq_size 64
tRP 15
tRCD 15
tCAS 12.5
dram_dbus_turn_around_time 30
dram_write_high_wm 56
dram_write_low_wm 48
min_dram_writes_per_switch 16
dram_mtps 2400
dram_dbus_return_time 13


Heartbeat CPU  0 instructions:    1000000 cycles:    1143434 heartbeat IPC: 0.87456 cumulative IPC: 0.87456 (Simulation time: 0 hr 0 min 1 sec) 
Heartbeat CPU  0 instructions:    2000000 cycles:    2306985 heartbeat IPC: 0.85944 cumulative IPC: 0.86693 (Simulation time: 0 hr 0 min 2 sec) 
Heartbeat CPU  0 instructions:    3000000 cycles:    3459506 heartbeat IPC: 0.86766 cumulative IPC: 0.86718 (Simulation time: 0 hr 0 min 3 sec) 
Heartbeat CPU  0 instructions:    4000000 cycles:    4510942 heartbeat IPC: 0.95108 cumulative IPC: 0.88673 (Simulation time: 0 hr 0 min 5 sec) 
Heartbeat CPU  0 instructions:    5000001 cycles:    5594750 heartbeat IPC: 0.92267 cumulative IPC: 0.89370 (Simulation time: 0 hr 0 min 6 sec) 
Heartbeat CPU  0 instructions:    6000000 cycles:    6675774 heartbeat IPC: 0.92505 cumulative IPC: 0.89877 (Simulation time: 0 hr 0 min 7 sec) 
Heartbeat CPU  0 instructions:    7000002 cycles:    7777082 heartbeat IPC: 0.90801 cumulative IPC: 0.90008 (Simulation time: 0 hr 0 min 8 sec) 
Heartbeat CPU  0 instructions:    8000000 cycles:    8892109 heartbeat IPC: 0.89684 cumulative IPC: 0.89967 (Simulation time: 0 hr 0 min 9 sec) 
Heartbeat CPU  0 instructions:    9000002 cycles:   10003909 heartbeat IPC: 0.89944 cumulative IPC: 0.89965 (Simulation time: 0 hr 0 min 10 sec) 
Heartbeat CPU  0 instructions:   10000000 cycles:   10943267 heartbeat IPC: 1.06455 cumulative IPC: 0.91380 (Simulation time: 0 hr 0 min 11 sec) 
Heartbeat CPU  0 instructions:   11000002 cycles:   11927191 heartbeat IPC: 1.01634 cumulative IPC: 0.92226 (Simulation time: 0 hr 0 min 12 sec) 
Heartbeat CPU  0 instructions:   12000000 cycles:   13065627 heartbeat IPC: 0.87840 cumulative IPC: 0.91844 (Simulation time: 0 hr 0 min 14 sec) 
Heartbeat CPU  0 instructions:   13000001 cycles:   14086519 heartbeat IPC: 0.97954 cumulative IPC: 0.92287 (Simulation time: 0 hr 0 min 15 sec) 
Heartbeat CPU  0 instructions:   14000001 cycles:   15203794 heartbeat IPC: 0.89503 cumulative IPC: 0.92082 (Simulation time: 0 hr 0 min 16 sec) 
Heartbeat CPU  0 instructions:   15000003 cycles:   16233400 heartbeat IPC: 0.97125 cumulative IPC: 0.92402 (Simulation time: 0 hr 0 min 17 sec) 
Heartbeat CPU  0 instructions:   16000000 cycles:   17275763 heartbeat IPC: 0.95936 cumulative IPC: 0.92615 (Simulation time: 0 hr 0 min 18 sec) 
Heartbeat CPU  0 instructions:   17000001 cycles:   18300779 heartbeat IPC: 0.97560 cumulative IPC: 0.92892 (Simulation time: 0 hr 0 min 20 sec) 
Heartbeat CPU  0 instructions:   18000001 cycles:   19405324 heartbeat IPC: 0.90535 cumulative IPC: 0.92758 (Simulation time: 0 hr 0 min 21 sec) 
Heartbeat CPU  0 instructions:   19000003 cycles:   20433851 heartbeat IPC: 0.97227 cumulative IPC: 0.92983 (Simulation time: 0 hr 0 min 22 sec) 
Heartbeat CPU  0 instructions:   20000000 cycles:   21408786 heartbeat IPC: 1.02571 cumulative IPC: 0.93420 (Simulation time: 0 hr 0 min 23 sec) 
Heartbeat CPU  0 instructions:   21000002 cycles:   22413771 heartbeat IPC: 0.99504 cumulative IPC: 0.93692 (Simulation time: 0 hr 0 min 24 sec) 
Heartbeat CPU  0 instructions:   22000002 cycles:   23406263 heartbeat IPC: 1.00756 cumulative IPC: 0.93992 (Simulation time: 0 hr 0 min 25 sec) 
Heartbeat CPU  0 instructions:   23000000 cycles:   24446367 heartbeat IPC: 0.96144 cumulative IPC: 0.94084 (Simulation time: 0 hr 0 min 27 sec) 
Heartbeat CPU  0 instructions:   24000000 cycles:   25403194 heartbeat IPC: 1.04512 cumulative IPC: 0.94476 (Simulation time: 0 hr 0 min 28 sec) 
Heartbeat CPU  0 instructions:   25000000 cycles:   26461493 heartbeat IPC: 0.94491 cumulative IPC: 0.94477 (Simulation time: 0 hr 0 min 29 sec) 
Heartbeat CPU  0 instructions:   26000001 cycles:   27524023 heartbeat IPC: 0.94115 cumulative IPC: 0.94463 (Simulation time: 0 hr 0 min 30 sec) 
Heartbeat CPU  0 instructions:   27000001 cycles:   28512535 heartbeat IPC: 1.01162 cumulative IPC: 0.94695 (Simulation time: 0 hr 0 min 31 sec) 
Heartbeat CPU  0 instructions:   28000000 cycles:   29574543 heartbeat IPC: 0.94161 cumulative IPC: 0.94676 (Simulation time: 0 hr 0 min 32 sec) 
Heartbeat CPU  0 instructions:   29000002 cycles:   30611370 heartbeat IPC: 0.96448 cumulative IPC: 0.94736 (Simulation time: 0 hr 0 min 34 sec) 
Heartbeat CPU  0 instructions:   30000001 cycles:   31608732 heartbeat IPC: 1.00264 cumulative IPC: 0.94910 (Simulation time: 0 hr 0 min 35 sec) 
Heartbeat CPU  0 instructions:   31000002 cycles:   32718803 heartbeat IPC: 0.90084 cumulative IPC: 0.94747 (Simulation time: 0 hr 0 min 36 sec) 
Heartbeat CPU  0 instructions:   32000000 cycles:   33767860 heartbeat IPC: 0.95324 cumulative IPC: 0.94765 (Simulation time: 0 hr 0 min 37 sec) 
Heartbeat CPU  0 instructions:   33000000 cycles:   34834808 heartbeat IPC: 0.93725 cumulative IPC: 0.94733 (Simulation time: 0 hr 0 min 38 sec) 
Heartbeat CPU  0 instructions:   34000000 cycles:   35881810 heartbeat IPC: 0.95511 cumulative IPC: 0.94756 (Simulation time: 0 hr 0 min 40 sec) 
Heartbeat CPU  0 instructions:   35000003 cycles:   36878434 heartbeat IPC: 1.00339 cumulative IPC: 0.94906 (Simulation time: 0 hr 0 min 41 sec) 
Heartbeat CPU  0 instructions:   36000000 cycles:   37974859 heartbeat IPC: 0.91205 cumulative IPC: 0.94800 (Simulation time: 0 hr 0 min 42 sec) 
Heartbeat CPU  0 instructions:   37000003 cycles:   39036627 heartbeat IPC: 0.94183 cumulative IPC: 0.94783 (Simulation time: 0 hr 0 min 43 sec) 
Heartbeat CPU  0 instructions:   38000002 cycles:   40060229 heartbeat IPC: 0.97694 cumulative IPC: 0.94857 (Simulation time: 0 hr 0 min 44 sec) 
Heartbeat CPU  0 instructions:   39000003 cycles:   41112976 heartbeat IPC: 0.94990 cumulative IPC: 0.94861 (Simulation time: 0 hr 0 min 45 sec) 
Heartbeat CPU  0 instructions:   40000000 cycles:   42188675 heartbeat IPC: 0.92963 cumulative IPC: 0.94812 (Simulation time: 0 hr 0 min 47 sec) 
Heartbeat CPU  0 instructions:   41000003 cycles:   43311038 heartbeat IPC: 0.89098 cumulative IPC: 0.94664 (Simulation time: 0 hr 0 min 48 sec) 
Heartbeat CPU  0 instructions:   42000001 cycles:   44341812 heartbeat IPC: 0.97014 cumulative IPC: 0.94719 (Simulation time: 0 hr 0 min 49 sec) 
Heartbeat CPU  0 instructions:   43000002 cycles:   45362221 heartbeat IPC: 0.98000 cumulative IPC: 0.94793 (Simulation time: 0 hr 0 min 50 sec) 
Heartbeat CPU  0 instructions:   44000000 cycles:   46445803 heartbeat IPC: 0.92286 cumulative IPC: 0.94734 (Simulation time: 0 hr 0 min 51 sec) 
Heartbeat CPU  0 instructions:   45000001 cycles:   47560626 heartbeat IPC: 0.89700 cumulative IPC: 0.94616 (Simulation time: 0 hr 0 min 52 sec) 
Heartbeat CPU  0 instructions:   46000002 cycles:   48617989 heartbeat IPC: 0.94575 cumulative IPC: 0.94615 (Simulation time: 0 hr 0 min 54 sec) 
Heartbeat CPU  0 instructions:   47000003 cycles:   49585773 heartbeat IPC: 1.03329 cumulative IPC: 0.94785 (Simulation time: 0 hr 0 min 55 sec) 
Heartbeat CPU  0 instructions:   48000000 cycles:   50587568 heartbeat IPC: 0.99821 cumulative IPC: 0.94885 (Simulation time: 0 hr 0 min 56 sec) 
Heartbeat CPU  0 instructions:   49000000 cycles:   51644152 heartbeat IPC: 0.94645 cumulative IPC: 0.94880 (Simulation time: 0 hr 0 min 57 sec) 
Heartbeat CPU  0 instructions:   50000001 cycles:   52690070 heartbeat IPC: 0.95610 cumulative IPC: 0.94895 (Simulation time: 0 hr 0 min 58 sec) 
Heartbeat CPU  0 instructions:   51000001 cycles:   53739006 heartbeat IPC: 0.95335 cumulative IPC: 0.94903 (Simulation time: 0 hr 1 min 0 sec) 
Heartbeat CPU  0 instructions:   52000000 cycles:   54806775 heartbeat IPC: 0.93653 cumulative IPC: 0.94879 (Simulation time: 0 hr 1 min 1 sec) 
Heartbeat CPU  0 instructions:   53000000 cycles:   55914087 heartbeat IPC: 0.90309 cumulative IPC: 0.94788 (Simulation time: 0 hr 1 min 2 sec) 
Heartbeat CPU  0 instructions:   54000003 cycles:   57031571 heartbeat IPC: 0.89487 cumulative IPC: 0.94684 (Simulation time: 0 hr 1 min 3 sec) 
Heartbeat CPU  0 instructions:   55000003 cycles:   58119672 heartbeat IPC: 0.91903 cumulative IPC: 0.94632 (Simulation time: 0 hr 1 min 4 sec) 
Heartbeat CPU  0 instructions:   56000000 cycles:   59180443 heartbeat IPC: 0.94271 cumulative IPC: 0.94626 (Simulation time: 0 hr 1 min 6 sec) 
Heartbeat CPU  0 instructions:   57000000 cycles:   60286754 heartbeat IPC: 0.90390 cumulative IPC: 0.94548 (Simulation time: 0 hr 1 min 7 sec) 
Heartbeat CPU  0 instructions:   58000000 cycles:   61331006 heartbeat IPC: 0.95762 cumulative IPC: 0.94569 (Simulation time: 0 hr 1 min 8 sec) 
Heartbeat CPU  0 instructions:   59000003 cycles:   62441778 heartbeat IPC: 0.90028 cumulative IPC: 0.94488 (Simulation time: 0 hr 1 min 9 sec) 
Heartbeat CPU  0 instructions:   60000000 cycles:   63510725 heartbeat IPC: 0.93550 cumulative IPC: 0.94472 (Simulation time: 0 hr 1 min 10 sec) 
Heartbeat CPU  0 instructions:   61000001 cycles:   64651622 heartbeat IPC: 0.87650 cumulative IPC: 0.94352 (Simulation time: 0 hr 1 min 11 sec) 
Heartbeat CPU  0 instructions:   62000001 cycles:   65702504 heartbeat IPC: 0.95158 cumulative IPC: 0.94365 (Simulation time: 0 hr 1 min 13 sec) 
Heartbeat CPU  0 instructions:   63000000 cycles:   66753861 heartbeat IPC: 0.95115 cumulative IPC: 0.94377 (Simulation time: 0 hr 1 min 14 sec) 
Heartbeat CPU  0 instructions:   64000000 cycles:   67827568 heartbeat IPC: 0.93135 cumulative IPC: 0.94357 (Simulation time: 0 hr 1 min 15 sec) 
Heartbeat CPU  0 instructions:   65000000 cycles:   68909126 heartbeat IPC: 0.92459 cumulative IPC: 0.94327 (Simulation time: 0 hr 1 min 16 sec) 
Heartbeat CPU  0 instructions:   66000000 cycles:   70000435 heartbeat IPC: 0.91633 cumulative IPC: 0.94285 (Simulation time: 0 hr 1 min 17 sec) 
Heartbeat CPU  0 instructions:   67000000 cycles:   71031910 heartbeat IPC: 0.96949 cumulative IPC: 0.94324 (Simulation time: 0 hr 1 min 19 sec) 
Heartbeat CPU  0 instructions:   68000000 cycles:   72087688 heartbeat IPC: 0.94717 cumulative IPC: 0.94330 (Simulation time: 0 hr 1 min 20 sec) 
Heartbeat CPU  0 instructions:   69000003 cycles:   73175877 heartbeat IPC: 0.91896 cumulative IPC: 0.94293 (Simulation time: 0 hr 1 min 21 sec) 
Heartbeat CPU  0 instructions:   70000001 cycles:   74357670 heartbeat IPC: 0.84617 cumulative IPC: 0.94140 (Simulation time: 0 hr 1 min 22 sec) 
Heartbeat CPU  0 instructions:   71000001 cycles:   75376315 heartbeat IPC: 0.98170 cumulative IPC: 0.94194 (Simulation time: 0 hr 1 min 23 sec) 
Heartbeat CPU  0 instructions:   72000000 cycles:   76448985 heartbeat IPC: 0.93225 cumulative IPC: 0.94180 (Simulation time: 0 hr 1 min 24 sec) 
Heartbeat CPU  0 instructions:   73000002 cycles:   77576985 heartbeat IPC: 0.88653 cumulative IPC: 0.94100 (Simulation time: 0 hr 1 min 26 sec) 
Heartbeat CPU  0 instructions:   74000000 cycles:   78653987 heartbeat IPC: 0.92850 cumulative IPC: 0.94083 (Simulation time: 0 hr 1 min 27 sec) 
Heartbeat CPU  0 instructions:   75000001 cycles:   79732426 heartbeat IPC: 0.92727 cumulative IPC: 0.94065 (Simulation time: 0 hr 1 min 28 sec) 
Heartbeat CPU  0 instructions:   76000000 cycles:   80709341 heartbeat IPC: 1.02363 cumulative IPC: 0.94165 (Simulation time: 0 hr 1 min 29 sec) 
Heartbeat CPU  0 instructions:   77000001 cycles:   81797632 heartbeat IPC: 0.91887 cumulative IPC: 0.94135 (Simulation time: 0 hr 1 min 30 sec) 
Heartbeat CPU  0 instructions:   78000000 cycles:   82848035 heartbeat IPC: 0.95201 cumulative IPC: 0.94148 (Simulation time: 0 hr 1 min 31 sec) 
Heartbeat CPU  0 instructions:   79000000 cycles:   83961651 heartbeat IPC: 0.89798 cumulative IPC: 0.94091 (Simulation time: 0 hr 1 min 33 sec) 
Heartbeat CPU  0 instructions:   80000000 cycles:   84964795 heartbeat IPC: 0.99687 cumulative IPC: 0.94157 (Simulation time: 0 hr 1 min 34 sec) 
Heartbeat CPU  0 instructions:   81000003 cycles:   85982535 heartbeat IPC: 0.98257 cumulative IPC: 0.94205 (Simulation time: 0 hr 1 min 35 sec) 
Heartbeat CPU  0 instructions:   82000002 cycles:   87078855 heartbeat IPC: 0.91214 cumulative IPC: 0.94168 (Simulation time: 0 hr 1 min 36 sec) 
Heartbeat CPU  0 instructions:   83000001 cycles:   88172557 heartbeat IPC: 0.91432 cumulative IPC: 0.94134 (Simulation time: 0 hr 1 min 37 sec) 
Heartbeat CPU  0 instructions:   84000000 cycles:   89126239 heartbeat IPC: 1.04857 cumulative IPC: 0.94248 (Simulation time: 0 hr 1 min 38 sec) 
Heartbeat CPU  0 instructions:   85000001 cycles:   90266537 heartbeat IPC: 0.87696 cumulative IPC: 0.94166 (Simulation time: 0 hr 1 min 40 sec) 
Heartbeat CPU  0 instructions:   86000000 cycles:   91429613 heartbeat IPC: 0.85979 cumulative IPC: 0.94061 (Simulation time: 0 hr 1 min 41 sec) 
Heartbeat CPU  0 instructions:   87000000 cycles:   92527568 heartbeat IPC: 0.91078 cumulative IPC: 0.94026 (Simulation time: 0 hr 1 min 42 sec) 
Heartbeat CPU  0 instructions:   88000000 cycles:   93622929 heartbeat IPC: 0.91294 cumulative IPC: 0.93994 (Simulation time: 0 hr 1 min 43 sec) 
Heartbeat CPU  0 instructions:   89000001 cycles:   94765390 heartbeat IPC: 0.87530 cumulative IPC: 0.93916 (Simulation time: 0 hr 1 min 44 sec) 
Heartbeat CPU  0 instructions:   90000000 cycles:   95899973 heartbeat IPC: 0.88138 cumulative IPC: 0.93848 (Simulation time: 0 hr 1 min 46 sec) 
Heartbeat CPU  0 instructions:   91000000 cycles:   97065366 heartbeat IPC: 0.85808 cumulative IPC: 0.93751 (Simulation time: 0 hr 1 min 47 sec) 
Heartbeat CPU  0 instructions:   92000000 cycles:   98100784 heartbeat IPC: 0.96579 cumulative IPC: 0.93781 (Simulation time: 0 hr 1 min 48 sec) 
Heartbeat CPU  0 instructions:   93000003 cycles:   99065073 heartbeat IPC: 1.03704 cumulative IPC: 0.93878 (Simulation time: 0 hr 1 min 49 sec) 
Heartbeat CPU  0 instructions:   94000003 cycles:  100194133 heartbeat IPC: 0.88569 cumulative IPC: 0.93818 (Simulation time: 0 hr 1 min 50 sec) 
Heartbeat CPU  0 instructions:   95000000 cycles:  101248123 heartbeat IPC: 0.94877 cumulative IPC: 0.93829 (Simulation time: 0 hr 1 min 51 sec) 
Heartbeat CPU  0 instructions:   96000000 cycles:  102338314 heartbeat IPC: 0.91727 cumulative IPC: 0.93807 (Simulation time: 0 hr 1 min 53 sec) 
Heartbeat CPU  0 instructions:   97000000 cycles:  103456251 heartbeat IPC: 0.89450 cumulative IPC: 0.93759 (Simulation time: 0 hr 1 min 54 sec) 
Heartbeat CPU  0 instructions:   98000001 cycles:  104448841 heartbeat IPC: 1.00747 cumulative IPC: 0.93826 (Simulation time: 0 hr 1 min 55 sec) 
Heartbeat CPU  0 instructions:   99000000 cycles:  105477120 heartbeat IPC: 0.97250 cumulative IPC: 0.93859 (Simulation time: 0 hr 1 min 56 sec) 
Heartbeat CPU  0 instructions:  100000000 cycles:  106534272 heartbeat IPC: 0.94594 cumulative IPC: 0.93867 (Simulation time: 0 hr 1 min 58 sec) 

Warmup complete CPU  0 instructions:  100000001 cycles:  106534274 (Simulation time: 0 hr 1 min 58 sec) 

Heartbeat CPU  0 instructions:  101000000 cycles:  109327732 heartbeat IPC: 0.35798 cumulative IPC: 0.35798 (Simulation time: 0 hr 1 min 59 sec) 
Heartbeat CPU  0 instructions:  102000001 cycles:  112015432 heartbeat IPC: 0.37207 cumulative IPC: 0.36489 (Simulation time: 0 hr 2 min 1 sec) 
Heartbeat CPU  0 instructions:  103000003 cycles:  114671307 heartbeat IPC: 0.37652 cumulative IPC: 0.36869 (Simulation time: 0 hr 2 min 3 sec) 
Heartbeat CPU  0 instructions:  104000000 cycles:  117219244 heartbeat IPC: 0.39247 cumulative IPC: 0.37436 (Simulation time: 0 hr 2 min 5 sec) 
Heartbeat CPU  0 instructions:  105000000 cycles:  120016317 heartbeat IPC: 0.35752 cumulative IPC: 0.37086 (Simulation time: 0 hr 2 min 7 sec) 
Heartbeat CPU  0 instructions:  106000000 cycles:  122743339 heartbeat IPC: 0.36670 cumulative IPC: 0.37016 (Simulation time: 0 hr 2 min 9 sec) 
Heartbeat CPU  0 instructions:  107000001 cycles:  125354805 heartbeat IPC: 0.38293 cumulative IPC: 0.37193 (Simulation time: 0 hr 2 min 10 sec) 
Heartbeat CPU  0 instructions:  108000000 cycles:  128040991 heartbeat IPC: 0.37227 cumulative IPC: 0.37198 (Simulation time: 0 hr 2 min 12 sec) 
Heartbeat CPU  0 instructions:  109000002 cycles:  130706776 heartbeat IPC: 0.37512 cumulative IPC: 0.37232 (Simulation time: 0 hr 2 min 14 sec) 
Heartbeat CPU  0 instructions:  110000002 cycles:  133373056 heartbeat IPC: 0.37505 cumulative IPC: 0.37260 (Simulation time: 0 hr 2 min 16 sec) 
Heartbeat CPU  0 instructions:  111000000 cycles:  135923929 heartbeat IPC: 0.39202 cumulative IPC: 0.37428 (Simulation time: 0 hr 2 min 18 sec) 
Heartbeat CPU  0 instructions:  112000000 cycles:  138686504 heartbeat IPC: 0.36198 cumulative IPC: 0.37322 (Simulation time: 0 hr 2 min 20 sec) 
Heartbeat CPU  0 instructions:  113000000 cycles:  141296909 heartbeat IPC: 0.38308 cumulative IPC: 0.37396 (Simulation time: 0 hr 2 min 22 sec) 
Heartbeat CPU  0 instructions:  114000000 cycles:  144126933 heartbeat IPC: 0.35335 cumulative IPC: 0.37241 (Simulation time: 0 hr 2 min 24 sec) 
Heartbeat CPU  0 instructions:  115000003 cycles:  146869347 heartbeat IPC: 0.36464 cumulative IPC: 0.37188 (Simulation time: 0 hr 2 min 26 sec) 
Heartbeat CPU  0 instructions:  116000000 cycles:  149567416 heartbeat IPC: 0.37063 cumulative IPC: 0.37181 (Simulation time: 0 hr 2 min 28 sec) 
Heartbeat CPU  0 instructions:  117000001 cycles:  152227450 heartbeat IPC: 0.37594 cumulative IPC: 0.37205 (Simulation time: 0 hr 2 min 29 sec) 
Heartbeat CPU  0 instructions:  118000000 cycles:  154863871 heartbeat IPC: 0.37930 cumulative IPC: 0.37244 (Simulation time: 0 hr 2 min 31 sec) 
Heartbeat CPU  0 instructions:  119000001 cycles:  157671667 heartbeat IPC: 0.35615 cumulative IPC: 0.37155 (Simulation time: 0 hr 2 min 33 sec) 
Heartbeat CPU  0 instructions:  120000000 cycles:  160375228 heartbeat IPC: 0.36988 cumulative IPC: 0.37146 (Simulation time: 0 hr 2 min 35 sec) 
Heartbeat CPU  0 instructions:  121000000 cycles:  163139097 heartbeat IPC: 0.36181 cumulative IPC: 0.37099 (Simulation time: 0 hr 2 min 37 sec) 
Heartbeat CPU  0 instructions:  122000001 cycles:  165846064 heartbeat IPC: 0.36942 cumulative IPC: 0.37092 (Simulation time: 0 hr 2 min 39 sec) 
Heartbeat CPU  0 instructions:  123000000 cycles:  168480074 heartbeat IPC: 0.37965 cumulative IPC: 0.37129 (Simulation time: 0 hr 2 min 41 sec) 
Heartbeat CPU  0 instructions:  124000000 cycles:  171196811 heartbeat IPC: 0.36809 cumulative IPC: 0.37116 (Simulation time: 0 hr 2 min 43 sec) 
Heartbeat CPU  0 instructions:  125000001 cycles:  173987116 heartbeat IPC: 0.35838 cumulative IPC: 0.37063 (Simulation time: 0 hr 2 min 45 sec) 
Heartbeat CPU  0 instructions:  126000000 cycles:  176756385 heartbeat IPC: 0.36111 cumulative IPC: 0.37025 (Simulation time: 0 hr 2 min 46 sec) 
Heartbeat CPU  0 instructions:  127000000 cycles:  179324182 heartbeat IPC: 0.38944 cumulative IPC: 0.37093 (Simulation time: 0 hr 2 min 48 sec) 
Heartbeat CPU  0 instructions:  128000000 cycles:  182045843 heartbeat IPC: 0.36742 cumulative IPC: 0.37080 (Simulation time: 0 hr 2 min 50 sec) 
Heartbeat CPU  0 instructions:  129000001 cycles:  184843616 heartbeat IPC: 0.35743 cumulative IPC: 0.37033 (Simulation time: 0 hr 2 min 52 sec) 
Heartbeat CPU  0 instructions:  130000000 cycles:  187554303 heartbeat IPC: 0.36891 cumulative IPC: 0.37028 (Simulation time: 0 hr 2 min 54 sec) 
Heartbeat CPU  0 instructions:  131000001 cycles:  190155657 heartbeat IPC: 0.38442 cumulative IPC: 0.37072 (Simulation time: 0 hr 2 min 56 sec) 
Heartbeat CPU  0 instructions:  132000000 cycles:  192784004 heartbeat IPC: 0.38047 cumulative IPC: 0.37102 (Simulation time: 0 hr 2 min 58 sec) 
Heartbeat CPU  0 instructions:  133000000 cycles:  195451939 heartbeat IPC: 0.37482 cumulative IPC: 0.37113 (Simulation time: 0 hr 3 min 0 sec) 
Heartbeat CPU  0 instructions:  134000001 cycles:  198165419 heartbeat IPC: 0.36853 cumulative IPC: 0.37105 (Simulation time: 0 hr 3 min 2 sec) 
Heartbeat CPU  0 instructions:  135000002 cycles:  200924951 heartbeat IPC: 0.36238 cumulative IPC: 0.37080 (Simulation time: 0 hr 3 min 4 sec) 
Heartbeat CPU  0 instructions:  136000000 cycles:  203441029 heartbeat IPC: 0.39744 cumulative IPC: 0.37149 (Simulation time: 0 hr 3 min 5 sec) 
Heartbeat CPU  0 instructions:  137000002 cycles:  206142036 heartbeat IPC: 0.37023 cumulative IPC: 0.37146 (Simulation time: 0 hr 3 min 7 sec) 
Heartbeat CPU  0 instructions:  138000000 cycles:  208865588 heartbeat IPC: 0.36717 cumulative IPC: 0.37134 (Simulation time: 0 hr 3 min 9 sec) 
Heartbeat CPU  0 instructions:  139000000 cycles:  211527098 heartbeat IPC: 0.37573 cumulative IPC: 0.37145 (Simulation time: 0 hr 3 min 11 sec) 
Heartbeat CPU  0 instructions:  140000000 cycles:  214330428 heartbeat IPC: 0.35672 cumulative IPC: 0.37107 (Simulation time: 0 hr 3 min 13 sec) 
Heartbeat CPU  0 instructions:  141000000 cycles:  216694053 heartbeat IPC: 0.42308 cumulative IPC: 0.37219 (Simulation time: 0 hr 3 min 14 sec) 
Heartbeat CPU  0 instructions:  142000000 cycles:  219109250 heartbeat IPC: 0.41404 cumulative IPC: 0.37308 (Simulation time: 0 hr 3 min 16 sec) 
Heartbeat CPU  0 instructions:  143000000 cycles:  221956998 heartbeat IPC: 0.35115 cumulative IPC: 0.37254 (Simulation time: 0 hr 3 min 18 sec) 
Heartbeat CPU  0 instructions:  144000000 cycles:  224777928 heartbeat IPC: 0.35449 cumulative IPC: 0.37211 (Simulation time: 0 hr 3 min 20 sec) 
Heartbeat CPU  0 instructions:  145000003 cycles:  227483798 heartbeat IPC: 0.36957 cumulative IPC: 0.37206 (Simulation time: 0 hr 3 min 22 sec) 
Heartbeat CPU  0 instructions:  146000000 cycles:  230247776 heartbeat IPC: 0.36180 cumulative IPC: 0.37183 (Simulation time: 0 hr 3 min 24 sec) 
Heartbeat CPU  0 instructions:  147000000 cycles:  232958582 heartbeat IPC: 0.36889 cumulative IPC: 0.37176 (Simulation time: 0 hr 3 min 26 sec) 
Heartbeat CPU  0 instructions:  148000000 cycles:  235708646 heartbeat IPC: 0.36363 cumulative IPC: 0.37159 (Simulation time: 0 hr 3 min 27 sec) 
Heartbeat CPU  0 instructions:  149000000 cycles:  238015491 heartbeat IPC: 0.43349 cumulative IPC: 0.37268 (Simulation time: 0 hr 3 min 29 sec) 
Heartbeat CPU  0 instructions:  150000000 cycles:  240252373 heartbeat IPC: 0.44705 cumulative IPC: 0.37392 (Simulation time: 0 hr 3 min 31 sec) 
Heartbeat CPU  0 instructions:  151000003 cycles:  242758799 heartbeat IPC: 0.39898 cumulative IPC: 0.37438 (Simulation time: 0 hr 3 min 33 sec) 
Heartbeat CPU  0 instructions:  152000000 cycles:  245613963 heartbeat IPC: 0.35024 cumulative IPC: 0.37389 (Simulation time: 0 hr 3 min 35 sec) 
Heartbeat CPU  0 instructions:  153000000 cycles:  248358012 heartbeat IPC: 0.36442 cumulative IPC: 0.37370 (Simulation time: 0 hr 3 min 36 sec) 
Heartbeat CPU  0 instructions:  154000000 cycles:  251081218 heartbeat IPC: 0.36721 cumulative IPC: 0.37358 (Simulation time: 0 hr 3 min 38 sec) 
Heartbeat CPU  0 instructions:  155000002 cycles:  253796039 heartbeat IPC: 0.36835 cumulative IPC: 0.37348 (Simulation time: 0 hr 3 min 40 sec) 
Heartbeat CPU  0 instructions:  156000000 cycles:  256537718 heartbeat IPC: 0.36474 cumulative IPC: 0.37332 (Simulation time: 0 hr 3 min 42 sec) 
Heartbeat CPU  0 instructions:  157000000 cycles:  259286192 heartbeat IPC: 0.36384 cumulative IPC: 0.37315 (Simulation time: 0 hr 3 min 44 sec) 
Heartbeat CPU  0 instructions:  158000002 cycles:  261265327 heartbeat IPC: 0.50527 cumulative IPC: 0.37484 (Simulation time: 0 hr 3 min 45 sec) 
Heartbeat CPU  0 instructions:  159000001 cycles:  263575933 heartbeat IPC: 0.43279 cumulative IPC: 0.37570 (Simulation time: 0 hr 3 min 47 sec) 
Heartbeat CPU  0 instructions:  160000000 cycles:  266303184 heartbeat IPC: 0.36667 cumulative IPC: 0.37554 (Simulation time: 0 hr 3 min 49 sec) 
Heartbeat CPU  0 instructions:  161000002 cycles:  268978059 heartbeat IPC: 0.37385 cumulative IPC: 0.37551 (Simulation time: 0 hr 3 min 51 sec) 
Heartbeat CPU  0 instructions:  162000000 cycles:  271858513 heartbeat IPC: 0.34717 cumulative IPC: 0.37502 (Simulation time: 0 hr 3 min 53 sec) 
Heartbeat CPU  0 instructions:  163000001 cycles:  274559304 heartbeat IPC: 0.37026 cumulative IPC: 0.37494 (Simulation time: 0 hr 3 min 55 sec) 
Heartbeat CPU  0 instructions:  164000000 cycles:  277271031 heartbeat IPC: 0.36877 cumulative IPC: 0.37485 (Simulation time: 0 hr 3 min 57 sec) 
Heartbeat CPU  0 instructions:  165000001 cycles:  279991646 heartbeat IPC: 0.36756 cumulative IPC: 0.37473 (Simulation time: 0 hr 3 min 58 sec) 
Heartbeat CPU  0 instructions:  166000001 cycles:  282735228 heartbeat IPC: 0.36449 cumulative IPC: 0.37457 (Simulation time: 0 hr 4 min 0 sec) 
Heartbeat CPU  0 instructions:  167000003 cycles:  285539251 heartbeat IPC: 0.35663 cumulative IPC: 0.37429 (Simulation time: 0 hr 4 min 2 sec) 
Heartbeat CPU  0 instructions:  168000000 cycles:  288279919 heartbeat IPC: 0.36487 cumulative IPC: 0.37415 (Simulation time: 0 hr 4 min 4 sec) 
Heartbeat CPU  0 instructions:  169000003 cycles:  291016219 heartbeat IPC: 0.36546 cumulative IPC: 0.37402 (Simulation time: 0 hr 4 min 6 sec) 
Heartbeat CPU  0 instructions:  170000001 cycles:  293750033 heartbeat IPC: 0.36579 cumulative IPC: 0.37390 (Simulation time: 0 hr 4 min 8 sec) 
Heartbeat CPU  0 instructions:  171000001 cycles:  295826289 heartbeat IPC: 0.48164 cumulative IPC: 0.37508 (Simulation time: 0 hr 4 min 9 sec) 
Heartbeat CPU  0 instructions:  172000000 cycles:  298270698 heartbeat IPC: 0.40910 cumulative IPC: 0.37552 (Simulation time: 0 hr 4 min 11 sec) 
Heartbeat CPU  0 instructions:  173000000 cycles:  300950911 heartbeat IPC: 0.37310 cumulative IPC: 0.37548 (Simulation time: 0 hr 4 min 13 sec) 
Heartbeat CPU  0 instructions:  174000000 cycles:  303420670 heartbeat IPC: 0.40490 cumulative IPC: 0.37585 (Simulation time: 0 hr 4 min 15 sec) 
Heartbeat CPU  0 instructions:  175000000 cycles:  305945521 heartbeat IPC: 0.39606 cumulative IPC: 0.37611 (Simulation time: 0 hr 4 min 17 sec) 
Heartbeat CPU  0 instructions:  176000000 cycles:  308643877 heartbeat IPC: 0.37060 cumulative IPC: 0.37603 (Simulation time: 0 hr 4 min 19 sec) 
Heartbeat CPU  0 instructions:  177000000 cycles:  311408599 heartbeat IPC: 0.36170 cumulative IPC: 0.37584 (Simulation time: 0 hr 4 min 21 sec) 
Heartbeat CPU  0 instructions:  178000003 cycles:  314066929 heartbeat IPC: 0.37618 cumulative IPC: 0.37584 (Simulation time: 0 hr 4 min 22 sec) 
Heartbeat CPU  0 instructions:  179000002 cycles:  316766955 heartbeat IPC: 0.37037 cumulative IPC: 0.37577 (Simulation time: 0 hr 4 min 24 sec) 
Heartbeat CPU  0 instructions:  180000000 cycles:  319386609 heartbeat IPC: 0.38173 cumulative IPC: 0.37585 (Simulation time: 0 hr 4 min 26 sec) 
Heartbeat CPU  0 instructions:  181000001 cycles:  322109811 heartbeat IPC: 0.36722 cumulative IPC: 0.37574 (Simulation time: 0 hr 4 min 28 sec) 
Heartbeat CPU  0 instructions:  182000000 cycles:  324975371 heartbeat IPC: 0.34897 cumulative IPC: 0.37539 (Simulation time: 0 hr 4 min 30 sec) 
Heartbeat CPU  0 instructions:  183000000 cycles:  327697987 heartbeat IPC: 0.36729 cumulative IPC: 0.37529 (Simulation time: 0 hr 4 min 32 sec) 
Heartbeat CPU  0 instructions:  184000000 cycles:  330398972 heartbeat IPC: 0.37024 cumulative IPC: 0.37523 (Simulation time: 0 hr 4 min 34 sec) 
Heartbeat CPU  0 instructions:  185000000 cycles:  333085876 heartbeat IPC: 0.37218 cumulative IPC: 0.37519 (Simulation time: 0 hr 4 min 36 sec) 
Heartbeat CPU  0 instructions:  186000003 cycles:  335819118 heartbeat IPC: 0.36587 cumulative IPC: 0.37508 (Simulation time: 0 hr 4 min 37 sec) 
Heartbeat CPU  0 instructions:  187000001 cycles:  338591572 heartbeat IPC: 0.36069 cumulative IPC: 0.37491 (Simulation time: 0 hr 4 min 39 sec) 
Heartbeat CPU  0 instructions:  188000000 cycles:  341323648 heartbeat IPC: 0.36602 cumulative IPC: 0.37480 (Simulation time: 0 hr 4 min 41 sec) 
Heartbeat CPU  0 instructions:  189000001 cycles:  344063024 heartbeat IPC: 0.36505 cumulative IPC: 0.37469 (Simulation time: 0 hr 4 min 43 sec) 
Heartbeat CPU  0 instructions:  190000000 cycles:  346867014 heartbeat IPC: 0.35663 cumulative IPC: 0.37448 (Simulation time: 0 hr 4 min 45 sec) 
Heartbeat CPU  0 instructions:  191000001 cycles:  349580433 heartbeat IPC: 0.36854 cumulative IPC: 0.37441 (Simulation time: 0 hr 4 min 47 sec) 
Heartbeat CPU  0 instructions:  192000000 cycles:  352356827 heartbeat IPC: 0.36018 cumulative IPC: 0.37425 (Simulation time: 0 hr 4 min 49 sec) 
Heartbeat CPU  0 instructions:  193000002 cycles:  354961589 heartbeat IPC: 0.38391 cumulative IPC: 0.37435 (Simulation time: 0 hr 4 min 51 sec) 
Heartbeat CPU  0 instructions:  194000001 cycles:  356902514 heartbeat IPC: 0.51522 cumulative IPC: 0.37545 (Simulation time: 0 hr 4 min 52 sec) 
Heartbeat CPU  0 instructions:  195000000 cycles:  359349520 heartbeat IPC: 0.40866 cumulative IPC: 0.37577 (Simulation time: 0 hr 4 min 54 sec) 
Heartbeat CPU  0 instructions:  196000000 cycles:  362261594 heartbeat IPC: 0.34340 cumulative IPC: 0.37540 (Simulation time: 0 hr 4 min 56 sec) 
Heartbeat CPU  0 instructions:  197000000 cycles:  364953510 heartbeat IPC: 0.37148 cumulative IPC: 0.37536 (Simulation time: 0 hr 4 min 58 sec) 
Heartbeat CPU  0 instructions:  198000000 cycles:  367681520 heartbeat IPC: 0.36657 cumulative IPC: 0.37527 (Simulation time: 0 hr 5 min 0 sec) 
Heartbeat CPU  0 instructions:  199000000 cycles:  370292864 heartbeat IPC: 0.38294 cumulative IPC: 0.37534 (Simulation time: 0 hr 5 min 1 sec) 
Heartbeat CPU  0 instructions:  200000000 cycles:  372828196 heartbeat IPC: 0.39443 cumulative IPC: 0.37552 (Simulation time: 0 hr 5 min 3 sec) 
Heartbeat CPU  0 instructions:  201000001 cycles:  375571964 heartbeat IPC: 0.36446 cumulative IPC: 0.37541 (Simulation time: 0 hr 5 min 5 sec) 
Heartbeat CPU  0 instructions:  202000002 cycles:  378250533 heartbeat IPC: 0.37333 cumulative IPC: 0.37539 (Simulation time: 0 hr 5 min 7 sec) 
Heartbeat CPU  0 instructions:  203000001 cycles:  381013719 heartbeat IPC: 0.36190 cumulative IPC: 0.37526 (Simulation time: 0 hr 5 min 9 sec) 
Heartbeat CPU  0 instructions:  204000000 cycles:  383791693 heartbeat IPC: 0.35997 cumulative IPC: 0.37510 (Simulation time: 0 hr 5 min 11 sec) 
Heartbeat CPU  0 instructions:  205000002 cycles:  386499928 heartbeat IPC: 0.36924 cumulative IPC: 0.37505 (Simulation time: 0 hr 5 min 13 sec) 
Heartbeat CPU  0 instructions:  206000002 cycles:  389226112 heartbeat IPC: 0.36681 cumulative IPC: 0.37497 (Simulation time: 0 hr 5 min 15 sec) 
Heartbeat CPU  0 instructions:  207000001 cycles:  391928873 heartbeat IPC: 0.36999 cumulative IPC: 0.37492 (Simulation time: 0 hr 5 min 16 sec) 
Heartbeat CPU  0 instructions:  208000000 cycles:  394698080 heartbeat IPC: 0.36111 cumulative IPC: 0.37479 (Simulation time: 0 hr 5 min 18 sec) 
Heartbeat CPU  0 instructions:  209000001 cycles:  397256817 heartbeat IPC: 0.39082 cumulative IPC: 0.37493 (Simulation time: 0 hr 5 min 20 sec) 
Heartbeat CPU  0 instructions:  210000000 cycles:  399482493 heartbeat IPC: 0.44930 cumulative IPC: 0.37549 (Simulation time: 0 hr 5 min 22 sec) 
Heartbeat CPU  0 instructions:  211000000 cycles:  401758921 heartbeat IPC: 0.43928 cumulative IPC: 0.37598 (Simulation time: 0 hr 5 min 24 sec) 
Heartbeat CPU  0 instructions:  212000000 cycles:  404552330 heartbeat IPC: 0.35799 cumulative IPC: 0.37582 (Simulation time: 0 hr 5 min 25 sec) 
Heartbeat CPU  0 instructions:  213000000 cycles:  407281520 heartbeat IPC: 0.36641 cumulative IPC: 0.37573 (Simulation time: 0 hr 5 min 27 sec) 
Heartbeat CPU  0 instructions:  214000000 cycles:  410114664 heartbeat IPC: 0.35296 cumulative IPC: 0.37552 (Simulation time: 0 hr 5 min 29 sec) 
Heartbeat CPU  0 instructions:  215000002 cycles:  412868610 heartbeat IPC: 0.36312 cumulative IPC: 0.37541 (Simulation time: 0 hr 5 min 31 sec) 
Heartbeat CPU  0 instructions:  216000000 cycles:  415599629 heartbeat IPC: 0.36616 cumulative IPC: 0.37533 (Simulation time: 0 hr 5 min 33 sec) 
Heartbeat CPU  0 instructions:  217000000 cycles:  418288484 heartbeat IPC: 0.37191 cumulative IPC: 0.37530 (Simulation time: 0 hr 5 min 35 sec) 
Heartbeat CPU  0 instructions:  218000003 cycles:  421033849 heartbeat IPC: 0.36425 cumulative IPC: 0.37520 (Simulation time: 0 hr 5 min 37 sec) 
Heartbeat CPU  0 instructions:  219000000 cycles:  423781096 heartbeat IPC: 0.36400 cumulative IPC: 0.37510 (Simulation time: 0 hr 5 min 38 sec) 
Heartbeat CPU  0 instructions:  220000000 cycles:  426474391 heartbeat IPC: 0.37129 cumulative IPC: 0.37507 (Simulation time: 0 hr 5 min 40 sec) 
Heartbeat CPU  0 instructions:  221000001 cycles:  429251265 heartbeat IPC: 0.36012 cumulative IPC: 0.37494 (Simulation time: 0 hr 5 min 42 sec) 
Heartbeat CPU  0 instructions:  222000001 cycles:  432024417 heartbeat IPC: 0.36060 cumulative IPC: 0.37482 (Simulation time: 0 hr 5 min 44 sec) 
Heartbeat CPU  0 instructions:  223000002 cycles:  434804415 heartbeat IPC: 0.35971 cumulative IPC: 0.37469 (Simulation time: 0 hr 5 min 46 sec) 
Heartbeat CPU  0 instructions:  224000000 cycles:  437589071 heartbeat IPC: 0.35911 cumulative IPC: 0.37456 (Simulation time: 0 hr 5 min 48 sec) 
Heartbeat CPU  0 instructions:  225000000 cycles:  440365693 heartbeat IPC: 0.36015 cumulative IPC: 0.37444 (Simulation time: 0 hr 5 min 50 sec) 
Heartbeat CPU  0 instructions:  226000001 cycles:  443178201 heartbeat IPC: 0.35555 cumulative IPC: 0.37428 (Simulation time: 0 hr 5 min 52 sec) 
Heartbeat CPU  0 instructions:  227000000 cycles:  445904523 heartbeat IPC: 0.36679 cumulative IPC: 0.37422 (Simulation time: 0 hr 5 min 53 sec) 
Heartbeat CPU  0 instructions:  228000000 cycles:  448643708 heartbeat IPC: 0.36507 cumulative IPC: 0.37415 (Simulation time: 0 hr 5 min 55 sec) 
Heartbeat CPU  0 instructions:  229000000 cycles:  450994805 heartbeat IPC: 0.42533 cumulative IPC: 0.37450 (Simulation time: 0 hr 5 min 57 sec) 
Heartbeat CPU  0 instructions:  230000000 cycles:  453056290 heartbeat IPC: 0.48509 cumulative IPC: 0.37516 (Simulation time: 0 hr 5 min 59 sec) 
Heartbeat CPU  0 instructions:  231000001 cycles:  455831278 heartbeat IPC: 0.36036 cumulative IPC: 0.37504 (Simulation time: 0 hr 6 min 1 sec) 
Heartbeat CPU  0 instructions:  232000000 cycles:  458338473 heartbeat IPC: 0.39885 cumulative IPC: 0.37521 (Simulation time: 0 hr 6 min 3 sec) 
Heartbeat CPU  0 instructions:  233000002 cycles:  460880983 heartbeat IPC: 0.39331 cumulative IPC: 0.37534 (Simulation time: 0 hr 6 min 4 sec) 
Heartbeat CPU  0 instructions:  234000002 cycles:  463578234 heartbeat IPC: 0.37075 cumulative IPC: 0.37530 (Simulation time: 0 hr 6 min 6 sec) 
Heartbeat CPU  0 instructions:  235000002 cycles:  466303749 heartbeat IPC: 0.36690 cumulative IPC: 0.37524 (Simulation time: 0 hr 6 min 8 sec) 
Heartbeat CPU  0 instructions:  236000000 cycles:  468944774 heartbeat IPC: 0.37864 cumulative IPC: 0.37527 (Simulation time: 0 hr 6 min 10 sec) 
Heartbeat CPU  0 instructions:  237000001 cycles:  471614253 heartbeat IPC: 0.37461 cumulative IPC: 0.37526 (Simulation time: 0 hr 6 min 12 sec) 
Heartbeat CPU  0 instructions:  238000002 cycles:  474400020 heartbeat IPC: 0.35897 cumulative IPC: 0.37514 (Simulation time: 0 hr 6 min 14 sec) 
Heartbeat CPU  0 instructions:  239000000 cycles:  477023710 heartbeat IPC: 0.38114 cumulative IPC: 0.37518 (Simulation time: 0 hr 6 min 16 sec) 
Heartbeat CPU  0 instructions:  240000000 cycles:  479800017 heartbeat IPC: 0.36019 cumulative IPC: 0.37507 (Simulation time: 0 hr 6 min 18 sec) 
Heartbeat CPU  0 instructions:  241000001 cycles:  482602508 heartbeat IPC: 0.35683 cumulative IPC: 0.37493 (Simulation time: 0 hr 6 min 19 sec) 
Heartbeat CPU  0 instructions:  242000000 cycles:  485301975 heartbeat IPC: 0.37044 cumulative IPC: 0.37490 (Simulation time: 0 hr 6 min 21 sec) 
Heartbeat CPU  0 instructions:  243000002 cycles:  488109966 heartbeat IPC: 0.35613 cumulative IPC: 0.37476 (Simulation time: 0 hr 6 min 23 sec) 
Heartbeat CPU  0 instructions:  244000000 cycles:  490856182 heartbeat IPC: 0.36414 cumulative IPC: 0.37469 (Simulation time: 0 hr 6 min 25 sec) 
Heartbeat CPU  0 instructions:  245000001 cycles:  493520301 heartbeat IPC: 0.37536 cumulative IPC: 0.37469 (Simulation time: 0 hr 6 min 27 sec) 
Heartbeat CPU  0 instructions:  246000000 cycles:  496011544 heartbeat IPC: 0.40141 cumulative IPC: 0.37486 (Simulation time: 0 hr 6 min 29 sec) 
Heartbeat CPU  0 instructions:  247000001 cycles:  498793144 heartbeat IPC: 0.35951 cumulative IPC: 0.37475 (Simulation time: 0 hr 6 min 31 sec) 
Heartbeat CPU  0 instructions:  248000000 cycles:  501335999 heartbeat IPC: 0.39326 cumulative IPC: 0.37487 (Simulation time: 0 hr 6 min 33 sec) 
Heartbeat CPU  0 instructions:  249000000 cycles:  504039486 heartbeat IPC: 0.36989 cumulative IPC: 0.37484 (Simulation time: 0 hr 6 min 35 sec) 
Heartbeat CPU  0 instructions:  250000000 cycles:  506733335 heartbeat IPC: 0.37122 cumulative IPC: 0.37481 (Simulation time: 0 hr 6 min 36 sec) 
Heartbeat CPU  0 instructions:  251000000 cycles:  509098617 heartbeat IPC: 0.42278 cumulative IPC: 0.37510 (Simulation time: 0 hr 6 min 38 sec) 
Heartbeat CPU  0 instructions:  252000000 cycles:  511395608 heartbeat IPC: 0.43535 cumulative IPC: 0.37544 (Simulation time: 0 hr 6 min 40 sec) 
Heartbeat CPU  0 instructions:  253000001 cycles:  513845517 heartbeat IPC: 0.40818 cumulative IPC: 0.37563 (Simulation time: 0 hr 6 min 42 sec) 
Heartbeat CPU  0 instructions:  254000000 cycles:  516472108 heartbeat IPC: 0.38072 cumulative IPC: 0.37567 (Simulation time: 0 hr 6 min 44 sec) 
Heartbeat CPU  0 instructions:  255000001 cycles:  518857046 heartbeat IPC: 0.41930 cumulative IPC: 0.37592 (Simulation time: 0 hr 6 min 45 sec) 
Heartbeat CPU  0 instructions:  256000000 cycles:  521665536 heartbeat IPC: 0.35606 cumulative IPC: 0.37578 (Simulation time: 0 hr 6 min 47 sec) 
Heartbeat CPU  0 instructions:  257000002 cycles:  524481303 heartbeat IPC: 0.35514 cumulative IPC: 0.37565 (Simulation time: 0 hr 6 min 49 sec) 
Heartbeat CPU  0 instructions:  258000001 cycles:  527226246 heartbeat IPC: 0.36431 cumulative IPC: 0.37557 (Simulation time: 0 hr 6 min 51 sec) 
Heartbeat CPU  0 instructions:  259000000 cycles:  529919956 heartbeat IPC: 0.37123 cumulative IPC: 0.37554 (Simulation time: 0 hr 6 min 53 sec) 
Heartbeat CPU  0 instructions:  260000000 cycles:  532620636 heartbeat IPC: 0.37028 cumulative IPC: 0.37551 (Simulation time: 0 hr 6 min 55 sec) 
Heartbeat CPU  0 instructions:  261000001 cycles:  535434433 heartbeat IPC: 0.35539 cumulative IPC: 0.37538 (Simulation time: 0 hr 6 min 57 sec) 
Heartbeat CPU  0 instructions:  262000003 cycles:  538097497 heartbeat IPC: 0.37551 cumulative IPC: 0.37538 (Simulation time: 0 hr 6 min 58 sec) 
Heartbeat CPU  0 instructions:  263000002 cycles:  540896001 heartbeat IPC: 0.35733 cumulative IPC: 0.37526 (Simulation time: 0 hr 7 min 0 sec) 
Heartbeat CPU  0 instructions:  264000000 cycles:  543530560 heartbeat IPC: 0.37957 cumulative IPC: 0.37529 (Simulation time: 0 hr 7 min 2 sec) 
Heartbeat CPU  0 instructions:  265000000 cycles:  546289015 heartbeat IPC: 0.36252 cumulative IPC: 0.37521 (Simulation time: 0 hr 7 min 4 sec) 
Heartbeat CPU  0 instructions:  266000001 cycles:  549114263 heartbeat IPC: 0.35395 cumulative IPC: 0.37507 (Simulation time: 0 hr 7 min 6 sec) 
Heartbeat CPU  0 instructions:  267000003 cycles:  551835027 heartbeat IPC: 0.36754 cumulative IPC: 0.37503 (Simulation time: 0 hr 7 min 8 sec) 
Heartbeat CPU  0 instructions:  268000000 cycles:  554610886 heartbeat IPC: 0.36025 cumulative IPC: 0.37494 (Simulation time: 0 hr 7 min 10 sec) 
Heartbeat CPU  0 instructions:  269000001 cycles:  557363300 heartbeat IPC: 0.36332 cumulative IPC: 0.37486 (Simulation time: 0 hr 7 min 12 sec) 
Heartbeat CPU  0 instructions:  270000000 cycles:  560242038 heartbeat IPC: 0.34737 cumulative IPC: 0.37469 (Simulation time: 0 hr 7 min 14 sec) 
Heartbeat CPU  0 instructions:  271000000 cycles:  562980144 heartbeat IPC: 0.36522 cumulative IPC: 0.37463 (Simulation time: 0 hr 7 min 15 sec) 
Heartbeat CPU  0 instructions:  272000000 cycles:  565710277 heartbeat IPC: 0.36628 cumulative IPC: 0.37458 (Simulation time: 0 hr 7 min 17 sec) 
Heartbeat CPU  0 instructions:  273000001 cycles:  568108714 heartbeat IPC: 0.41694 cumulative IPC: 0.37480 (Simulation time: 0 hr 7 min 19 sec) 
Heartbeat CPU  0 instructions:  274000000 cycles:  570362990 heartbeat IPC: 0.44360 cumulative IPC: 0.37514 (Simulation time: 0 hr 7 min 21 sec) 
Heartbeat CPU  0 instructions:  275000001 cycles:  572834987 heartbeat IPC: 0.40453 cumulative IPC: 0.37529 (Simulation time: 0 hr 7 min 22 sec) 
Heartbeat CPU  0 instructions:  276000000 cycles:  575480232 heartbeat IPC: 0.37804 cumulative IPC: 0.37531 (Simulation time: 0 hr 7 min 24 sec) 
Heartbeat CPU  0 instructions:  277000000 cycles:  578266761 heartbeat IPC: 0.35887 cumulative IPC: 0.37521 (Simulation time: 0 hr 7 min 26 sec) 
Heartbeat CPU  0 instructions:  278000001 cycles:  581122666 heartbeat IPC: 0.35015 cumulative IPC: 0.37506 (Simulation time: 0 hr 7 min 28 sec) 
Heartbeat CPU  0 instructions:  279000002 cycles:  583882884 heartbeat IPC: 0.36229 cumulative IPC: 0.37499 (Simulation time: 0 hr 7 min 30 sec) 
Heartbeat CPU  0 instructions:  280000000 cycles:  586579619 heartbeat IPC: 0.37082 cumulative IPC: 0.37496 (Simulation time: 0 hr 7 min 32 sec) 
Heartbeat CPU  0 instructions:  281000000 cycles:  589306594 heartbeat IPC: 0.36671 cumulative IPC: 0.37492 (Simulation time: 0 hr 7 min 34 sec) 
Heartbeat CPU  0 instructions:  282000003 cycles:  592101893 heartbeat IPC: 0.35774 cumulative IPC: 0.37482 (Simulation time: 0 hr 7 min 36 sec) 
Heartbeat CPU  0 instructions:  283000003 cycles:  594825907 heartbeat IPC: 0.36711 cumulative IPC: 0.37478 (Simulation time: 0 hr 7 min 37 sec) 
Heartbeat CPU  0 instructions:  284000000 cycles:  597459406 heartbeat IPC: 0.37972 cumulative IPC: 0.37480 (Simulation time: 0 hr 7 min 39 sec) 
Heartbeat CPU  0 instructions:  285000001 cycles:  600254619 heartbeat IPC: 0.35775 cumulative IPC: 0.37471 (Simulation time: 0 hr 7 min 41 sec) 
Heartbeat CPU  0 instructions:  286000003 cycles:  602944389 heartbeat IPC: 0.37178 cumulative IPC: 0.37469 (Simulation time: 0 hr 7 min 43 sec) 
Heartbeat CPU  0 instructions:  287000000 cycles:  605693216 heartbeat IPC: 0.36379 cumulative IPC: 0.37463 (Simulation time: 0 hr 7 min 45 sec) 
Heartbeat CPU  0 instructions:  288000000 cycles:  608485220 heartbeat IPC: 0.35817 cumulative IPC: 0.37454 (Simulation time: 0 hr 7 min 47 sec) 
Heartbeat CPU  0 instructions:  289000000 cycles:  611210172 heartbeat IPC: 0.36698 cumulative IPC: 0.37450 (Simulation time: 0 hr 7 min 49 sec) 
Heartbeat CPU  0 instructions:  290000000 cycles:  614024957 heartbeat IPC: 0.35527 cumulative IPC: 0.37439 (Simulation time: 0 hr 7 min 51 sec) 
Heartbeat CPU  0 instructions:  291000000 cycles:  616766933 heartbeat IPC: 0.36470 cumulative IPC: 0.37434 (Simulation time: 0 hr 7 min 53 sec) 
Heartbeat CPU  0 instructions:  292000000 cycles:  619470388 heartbeat IPC: 0.36990 cumulative IPC: 0.37432 (Simulation time: 0 hr 7 min 54 sec) 
Heartbeat CPU  0 instructions:  293000002 cycles:  622305342 heartbeat IPC: 0.35274 cumulative IPC: 0.37420 (Simulation time: 0 hr 7 min 56 sec) 
Heartbeat CPU  0 instructions:  294000003 cycles:  625009602 heartbeat IPC: 0.36979 cumulative IPC: 0.37417 (Simulation time: 0 hr 7 min 58 sec) 
Heartbeat CPU  0 instructions:  295000003 cycles:  627784727 heartbeat IPC: 0.36034 cumulative IPC: 0.37410 (Simulation time: 0 hr 8 min 0 sec) 
Heartbeat CPU  0 instructions:  296000000 cycles:  630417265 heartbeat IPC: 0.37986 cumulative IPC: 0.37413 (Simulation time: 0 hr 8 min 2 sec) 
Heartbeat CPU  0 instructions:  297000001 cycles:  632557925 heartbeat IPC: 0.46715 cumulative IPC: 0.37451 (Simulation time: 0 hr 8 min 4 sec) 
Heartbeat CPU  0 instructions:  298000000 cycles:  634967953 heartbeat IPC: 0.41493 cumulative IPC: 0.37469 (Simulation time: 0 hr 8 min 5 sec) 
Heartbeat CPU  0 instructions:  299000000 cycles:  637609879 heartbeat IPC: 0.37851 cumulative IPC: 0.37471 (Simulation time: 0 hr 8 min 7 sec) 
Heartbeat CPU  0 instructions:  300000000 cycles:  640124841 heartbeat IPC: 0.39762 cumulative IPC: 0.37482 (Simulation time: 0 hr 8 min 9 sec) 
Heartbeat CPU  0 instructions:  301000001 cycles:  642630585 heartbeat IPC: 0.39908 cumulative IPC: 0.37493 (Simulation time: 0 hr 8 min 11 sec) 
Heartbeat CPU  0 instructions:  302000000 cycles:  645226828 heartbeat IPC: 0.38517 cumulative IPC: 0.37498 (Simulation time: 0 hr 8 min 13 sec) 
Heartbeat CPU  0 instructions:  303000003 cycles:  647976656 heartbeat IPC: 0.36366 cumulative IPC: 0.37492 (Simulation time: 0 hr 8 min 15 sec) 
Heartbeat CPU  0 instructions:  304000000 cycles:  650655494 heartbeat IPC: 0.37330 cumulative IPC: 0.37492 (Simulation time: 0 hr 8 min 17 sec) 
Heartbeat CPU  0 instructions:  305000000 cycles:  653392393 heartbeat IPC: 0.36538 cumulative IPC: 0.37487 (Simulation time: 0 hr 8 min 19 sec) 
Heartbeat CPU  0 instructions:  306000002 cycles:  656239558 heartbeat IPC: 0.35123 cumulative IPC: 0.37475 (Simulation time: 0 hr 8 min 21 sec) 
Heartbeat CPU  0 instructions:  307000000 cycles:  658985955 heartbeat IPC: 0.36411 cumulative IPC: 0.37469 (Simulation time: 0 hr 8 min 22 sec) 
Heartbeat CPU  0 instructions:  308000000 cycles:  661685032 heartbeat IPC: 0.37050 cumulative IPC: 0.37467 (Simulation time: 0 hr 8 min 24 sec) 
Heartbeat CPU  0 instructions:  309000000 cycles:  664399601 heartbeat IPC: 0.36838 cumulative IPC: 0.37464 (Simulation time: 0 hr 8 min 26 sec) 
Heartbeat CPU  0 instructions:  310000000 cycles:  667159434 heartbeat IPC: 0.36234 cumulative IPC: 0.37458 (Simulation time: 0 hr 8 min 28 sec) 
Heartbeat CPU  0 instructions:  311000003 cycles:  669892974 heartbeat IPC: 0.36583 cumulative IPC: 0.37454 (Simulation time: 0 hr 8 min 30 sec) 
Heartbeat CPU  0 instructions:  312000000 cycles:  672529808 heartbeat IPC: 0.37924 cumulative IPC: 0.37456 (Simulation time: 0 hr 8 min 32 sec) 
Heartbeat CPU  0 instructions:  313000000 cycles:  675293313 heartbeat IPC: 0.36186 cumulative IPC: 0.37450 (Simulation time: 0 hr 8 min 34 sec) 
Heartbeat CPU  0 instructions:  314000002 cycles:  678009320 heartbeat IPC: 0.36819 cumulative IPC: 0.37447 (Simulation time: 0 hr 8 min 36 sec) 
Heartbeat CPU  0 instructions:  315000002 cycles:  680705731 heartbeat IPC: 0.37086 cumulative IPC: 0.37445 (Simulation time: 0 hr 8 min 38 sec) 
Heartbeat CPU  0 instructions:  316000000 cycles:  683474799 heartbeat IPC: 0.36113 cumulative IPC: 0.37439 (Simulation time: 0 hr 8 min 40 sec) 
Heartbeat CPU  0 instructions:  317000001 cycles:  686239285 heartbeat IPC: 0.36173 cumulative IPC: 0.37433 (Simulation time: 0 hr 8 min 41 sec) 
Heartbeat CPU  0 instructions:  318000000 cycles:  689012764 heartbeat IPC: 0.36056 cumulative IPC: 0.37426 (Simulation time: 0 hr 8 min 43 sec) 
Heartbeat CPU  0 instructions:  319000000 cycles:  691771615 heartbeat IPC: 0.36247 cumulative IPC: 0.37421 (Simulation time: 0 hr 8 min 45 sec) 
Heartbeat CPU  0 instructions:  320000000 cycles:  694469327 heartbeat IPC: 0.37068 cumulative IPC: 0.37419 (Simulation time: 0 hr 8 min 47 sec) 
Heartbeat CPU  0 instructions:  321000003 cycles:  697024540 heartbeat IPC: 0.39136 cumulative IPC: 0.37427 (Simulation time: 0 hr 8 min 49 sec) 
Heartbeat CPU  0 instructions:  322000002 cycles:  699524975 heartbeat IPC: 0.39993 cumulative IPC: 0.37437 (Simulation time: 0 hr 8 min 51 sec) 
Heartbeat CPU  0 instructions:  323000000 cycles:  701649911 heartbeat IPC: 0.47060 cumulative IPC: 0.37472 (Simulation time: 0 hr 8 min 52 sec) 
Heartbeat CPU  0 instructions:  324000000 cycles:  704059897 heartbeat IPC: 0.41494 cumulative IPC: 0.37488 (Simulation time: 0 hr 8 min 54 sec) 
Heartbeat CPU  0 instructions:  325000000 cycles:  706698354 heartbeat IPC: 0.37901 cumulative IPC: 0.37490 (Simulation time: 0 hr 8 min 56 sec) 
Heartbeat CPU  0 instructions:  326000000 cycles:  709337178 heartbeat IPC: 0.37896 cumulative IPC: 0.37492 (Simulation time: 0 hr 8 min 58 sec) 
Heartbeat CPU  0 instructions:  327000002 cycles:  712043526 heartbeat IPC: 0.36950 cumulative IPC: 0.37489 (Simulation time: 0 hr 9 min 0 sec) 
Heartbeat CPU  0 instructions:  328000000 cycles:  714689110 heartbeat IPC: 0.37799 cumulative IPC: 0.37490 (Simulation time: 0 hr 9 min 2 sec) 
Heartbeat CPU  0 instructions:  329000001 cycles:  717409125 heartbeat IPC: 0.36765 cumulative IPC: 0.37487 (Simulation time: 0 hr 9 min 4 sec) 
Heartbeat CPU  0 instructions:  330000000 cycles:  720236279 heartbeat IPC: 0.35371 cumulative IPC: 0.37477 (Simulation time: 0 hr 9 min 5 sec) 
Heartbeat CPU  0 instructions:  331000000 cycles:  723066871 heartbeat IPC: 0.35328 cumulative IPC: 0.37468 (Simulation time: 0 hr 9 min 7 sec) 
Heartbeat CPU  0 instructions:  332000000 cycles:  725741314 heartbeat IPC: 0.37391 cumulative IPC: 0.37467 (Simulation time: 0 hr 9 min 9 sec) 
Heartbeat CPU  0 instructions:  333000000 cycles:  728417969 heartbeat IPC: 0.37360 cumulative IPC: 0.37467 (Simulation time: 0 hr 9 min 11 sec) 
Heartbeat CPU  0 instructions:  334000001 cycles:  731178329 heartbeat IPC: 0.36227 cumulative IPC: 0.37461 (Simulation time: 0 hr 9 min 13 sec) 
Heartbeat CPU  0 instructions:  335000003 cycles:  733933173 heartbeat IPC: 0.36300 cumulative IPC: 0.37456 (Simulation time: 0 hr 9 min 15 sec) 
Heartbeat CPU  0 instructions:  336000000 cycles:  736603020 heartbeat IPC: 0.37455 cumulative IPC: 0.37456 (Simulation time: 0 hr 9 min 17 sec) 
Heartbeat CPU  0 instructions:  337000000 cycles:  739324284 heartbeat IPC: 0.36748 cumulative IPC: 0.37453 (Simulation time: 0 hr 9 min 19 sec) 
Heartbeat CPU  0 instructions:  338000000 cycles:  742084882 heartbeat IPC: 0.36224 cumulative IPC: 0.37448 (Simulation time: 0 hr 9 min 20 sec) 
Heartbeat CPU  0 instructions:  339000000 cycles:  744746913 heartbeat IPC: 0.37565 cumulative IPC: 0.37448 (Simulation time: 0 hr 9 min 22 sec) 
Heartbeat CPU  0 instructions:  340000000 cycles:  747502290 heartbeat IPC: 0.36293 cumulative IPC: 0.37443 (Simulation time: 0 hr 9 min 24 sec) 
Heartbeat CPU  0 instructions:  341000002 cycles:  750322713 heartbeat IPC: 0.35456 cumulative IPC: 0.37435 (Simulation time: 0 hr 9 min 26 sec) 
Heartbeat CPU  0 instructions:  342000000 cycles:  753039453 heartbeat IPC: 0.36809 cumulative IPC: 0.37432 (Simulation time: 0 hr 9 min 28 sec) 
Heartbeat CPU  0 instructions:  343000000 cycles:  755829611 heartbeat IPC: 0.35840 cumulative IPC: 0.37425 (Simulation time: 0 hr 9 min 30 sec) 
Heartbeat CPU  0 instructions:  344000000 cycles:  758557734 heartbeat IPC: 0.36655 cumulative IPC: 0.37422 (Simulation time: 0 hr 9 min 32 sec) 
Heartbeat CPU  0 instructions:  345000000 cycles:  761118255 heartbeat IPC: 0.39055 cumulative IPC: 0.37428 (Simulation time: 0 hr 9 min 34 sec) 
Heartbeat CPU  0 instructions:  346000001 cycles:  763723690 heartbeat IPC: 0.38381 cumulative IPC: 0.37432 (Simulation time: 0 hr 9 min 36 sec) 
Heartbeat CPU  0 instructions:  347000000 cycles:  765793901 heartbeat IPC: 0.48304 cumulative IPC: 0.37466 (Simulation time: 0 hr 9 min 37 sec) 
Heartbeat CPU  0 instructions:  348000000 cycles:  768066626 heartbeat IPC: 0.44000 cumulative IPC: 0.37489 (Simulation time: 0 hr 9 min 39 sec) 
Heartbeat CPU  0 instructions:  349000003 cycles:  770764477 heartbeat IPC: 0.37067 cumulative IPC: 0.37487 (Simulation time: 0 hr 9 min 41 sec) 
Heartbeat CPU  0 instructions:  350000002 cycles:  773454360 heartbeat IPC: 0.37176 cumulative IPC: 0.37486 (Simulation time: 0 hr 9 min 43 sec) 
Heartbeat CPU  0 instructions:  351000001 cycles:  776095710 heartbeat IPC: 0.37859 cumulative IPC: 0.37487 (Simulation time: 0 hr 9 min 45 sec) 
Heartbeat CPU  0 instructions:  352000000 cycles:  778828796 heartbeat IPC: 0.36589 cumulative IPC: 0.37484 (Simulation time: 0 hr 9 min 46 sec) 
Heartbeat CPU  0 instructions:  353000000 cycles:  781660706 heartbeat IPC: 0.35312 cumulative IPC: 0.37474 (Simulation time: 0 hr 9 min 48 sec) 
Heartbeat CPU  0 instructions:  354000001 cycles:  784412359 heartbeat IPC: 0.36342 cumulative IPC: 0.37470 (Simulation time: 0 hr 9 min 50 sec) 
Heartbeat CPU  0 instructions:  355000002 cycles:  787137484 heartbeat IPC: 0.36696 cumulative IPC: 0.37467 (Simulation time: 0 hr 9 min 52 sec) 
Heartbeat CPU  0 instructions:  356000000 cycles:  789793077 heartbeat IPC: 0.37656 cumulative IPC: 0.37468 (Simulation time: 0 hr 9 min 54 sec) 
Heartbeat CPU  0 instructions:  357000000 cycles:  792547180 heartbeat IPC: 0.36309 cumulative IPC: 0.37463 (Simulation time: 0 hr 9 min 56 sec) 
Heartbeat CPU  0 instructions:  358000000 cycles:  795210837 heartbeat IPC: 0.37542 cumulative IPC: 0.37463 (Simulation time: 0 hr 9 min 58 sec) 
Heartbeat CPU  0 instructions:  359000001 cycles:  797907855 heartbeat IPC: 0.37078 cumulative IPC: 0.37462 (Simulation time: 0 hr 10 min 0 sec) 
Heartbeat CPU  0 instructions:  360000000 cycles:  800671060 heartbeat IPC: 0.36190 cumulative IPC: 0.37457 (Simulation time: 0 hr 10 min 1 sec) 
Heartbeat CPU  0 instructions:  361000002 cycles:  803339924 heartbeat IPC: 0.37469 cumulative IPC: 0.37457 (Simulation time: 0 hr 10 min 3 sec) 
Heartbeat CPU  0 instructions:  362000000 cycles:  806129891 heartbeat IPC: 0.35843 cumulative IPC: 0.37450 (Simulation time: 0 hr 10 min 5 sec) 
Heartbeat CPU  0 instructions:  363000000 cycles:  808899360 heartbeat IPC: 0.36108 cumulative IPC: 0.37445 (Simulation time: 0 hr 10 min 7 sec) 
Heartbeat CPU  0 instructions:  364000000 cycles:  811649408 heartbeat IPC: 0.36363 cumulative IPC: 0.37441 (Simulation time: 0 hr 10 min 9 sec) 
Heartbeat CPU  0 instructions:  365000001 cycles:  814407866 heartbeat IPC: 0.36252 cumulative IPC: 0.37436 (Simulation time: 0 hr 10 min 11 sec) 
Heartbeat CPU  0 instructions:  366000000 cycles:  817154993 heartbeat IPC: 0.36402 cumulative IPC: 0.37432 (Simulation time: 0 hr 10 min 13 sec) 
Heartbeat CPU  0 instructions:  367000000 cycles:  819724284 heartbeat IPC: 0.38921 cumulative IPC: 0.37437 (Simulation time: 0 hr 10 min 15 sec) 
Heartbeat CPU  0 instructions:  368000000 cycles:  822316237 heartbeat IPC: 0.38581 cumulative IPC: 0.37442 (Simulation time: 0 hr 10 min 17 sec) 
Heartbeat CPU  0 instructions:  369000000 cycles:  824398310 heartbeat IPC: 0.48029 cumulative IPC: 0.37472 (Simulation time: 0 hr 10 min 18 sec) 
Heartbeat CPU  0 instructions:  370000000 cycles:  826630247 heartbeat IPC: 0.44804 cumulative IPC: 0.37495 (Simulation time: 0 hr 10 min 20 sec) 
Heartbeat CPU  0 instructions:  371000000 cycles:  829285329 heartbeat IPC: 0.37664 cumulative IPC: 0.37496 (Simulation time: 0 hr 10 min 22 sec) 
Heartbeat CPU  0 instructions:  372000000 cycles:  832155699 heartbeat IPC: 0.34839 cumulative IPC: 0.37485 (Simulation time: 0 hr 10 min 24 sec) 
Heartbeat CPU  0 instructions:  373000000 cycles:  834887327 heartbeat IPC: 0.36608 cumulative IPC: 0.37482 (Simulation time: 0 hr 10 min 25 sec) 
Heartbeat CPU  0 instructions:  374000003 cycles:  837577502 heartbeat IPC: 0.37172 cumulative IPC: 0.37481 (Simulation time: 0 hr 10 min 27 sec) 
Heartbeat CPU  0 instructions:  375000000 cycles:  840235187 heartbeat IPC: 0.37627 cumulative IPC: 0.37481 (Simulation time: 0 hr 10 min 29 sec) 
Heartbeat CPU  0 instructions:  376000000 cycles:  843007737 heartbeat IPC: 0.36068 cumulative IPC: 0.37476 (Simulation time: 0 hr 10 min 31 sec) 
Heartbeat CPU  0 instructions:  377000003 cycles:  845686067 heartbeat IPC: 0.37337 cumulative IPC: 0.37475 (Simulation time: 0 hr 10 min 33 sec) 
Heartbeat CPU  0 instructions:  378000000 cycles:  848384272 heartbeat IPC: 0.37062 cumulative IPC: 0.37474 (Simulation time: 0 hr 10 min 35 sec) 
Heartbeat CPU  0 instructions:  379000002 cycles:  851169403 heartbeat IPC: 0.35905 cumulative IPC: 0.37468 (Simulation time: 0 hr 10 min 37 sec) 
Heartbeat CPU  0 instructions:  380000000 cycles:  853857130 heartbeat IPC: 0.37206 cumulative IPC: 0.37467 (Simulation time: 0 hr 10 min 39 sec) 
Heartbeat CPU  0 instructions:  381000000 cycles:  856664993 heartbeat IPC: 0.35614 cumulative IPC: 0.37460 (Simulation time: 0 hr 10 min 40 sec) 
Heartbeat CPU  0 instructions:  382000001 cycles:  859398217 heartbeat IPC: 0.36587 cumulative IPC: 0.37457 (Simulation time: 0 hr 10 min 42 sec) 
Heartbeat CPU  0 instructions:  383000002 cycles:  862068848 heartbeat IPC: 0.37444 cumulative IPC: 0.37457 (Simulation time: 0 hr 10 min 44 sec) 
Heartbeat CPU  0 instructions:  384000000 cycles:  864170682 heartbeat IPC: 0.47577 cumulative IPC: 0.37485 (Simulation time: 0 hr 10 min 46 sec) 
Heartbeat CPU  0 instructions:  385000000 cycles:  866282241 heartbeat IPC: 0.47358 cumulative IPC: 0.37512 (Simulation time: 0 hr 10 min 47 sec) 
Heartbeat CPU  0 instructions:  386000002 cycles:  869019067 heartbeat IPC: 0.36539 cumulative IPC: 0.37509 (Simulation time: 0 hr 10 min 49 sec) 
Heartbeat CPU  0 instructions:  387000001 cycles:  871654629 heartbeat IPC: 0.37943 cumulative IPC: 0.37510 (Simulation time: 0 hr 10 min 51 sec) 
Heartbeat CPU  0 instructions:  388000000 cycles:  874401363 heartbeat IPC: 0.36407 cumulative IPC: 0.37506 (Simulation time: 0 hr 10 min 53 sec) 
Heartbeat CPU  0 instructions:  389000000 cycles:  877106538 heartbeat IPC: 0.36966 cumulative IPC: 0.37505 (Simulation time: 0 hr 10 min 55 sec) 
Heartbeat CPU  0 instructions:  390000000 cycles:  879797480 heartbeat IPC: 0.37162 cumulative IPC: 0.37503 (Simulation time: 0 hr 10 min 57 sec) 
Heartbeat CPU  0 instructions:  391000001 cycles:  882509141 heartbeat IPC: 0.36878 cumulative IPC: 0.37501 (Simulation time: 0 hr 10 min 59 sec) 
Heartbeat CPU  0 instructions:  392000000 cycles:  885252015 heartbeat IPC: 0.36458 cumulative IPC: 0.37498 (Simulation time: 0 hr 11 min 1 sec) 
Heartbeat CPU  0 instructions:  393000000 cycles:  887980939 heartbeat IPC: 0.36644 cumulative IPC: 0.37495 (Simulation time: 0 hr 11 min 2 sec) 
Heartbeat CPU  0 instructions:  394000002 cycles:  890600851 heartbeat IPC: 0.38169 cumulative IPC: 0.37497 (Simulation time: 0 hr 11 min 4 sec) 
Heartbeat CPU  0 instructions:  395000002 cycles:  893391535 heartbeat IPC: 0.35834 cumulative IPC: 0.37491 (Simulation time: 0 hr 11 min 6 sec) 
Heartbeat CPU  0 instructions:  396000000 cycles:  896056901 heartbeat IPC: 0.37518 cumulative IPC: 0.37491 (Simulation time: 0 hr 11 min 8 sec) 
Heartbeat CPU  0 instructions:  397000000 cycles:  898791657 heartbeat IPC: 0.36566 cumulative IPC: 0.37488 (Simulation time: 0 hr 11 min 10 sec) 
Heartbeat CPU  0 instructions:  398000001 cycles:  901568404 heartbeat IPC: 0.36013 cumulative IPC: 0.37483 (Simulation time: 0 hr 11 min 12 sec) 
Heartbeat CPU  0 instructions:  399000002 cycles:  904332418 heartbeat IPC: 0.36179 cumulative IPC: 0.37478 (Simulation time: 0 hr 11 min 14 sec) 
Heartbeat CPU  0 instructions:  400000000 cycles:  907132443 heartbeat IPC: 0.35714 cumulative IPC: 0.37472 (Simulation time: 0 hr 11 min 16 sec) 
Heartbeat CPU  0 instructions:  401000000 cycles:  909875286 heartbeat IPC: 0.36459 cumulative IPC: 0.37469 (Simulation time: 0 hr 11 min 17 sec) 
Heartbeat CPU  0 instructions:  402000000 cycles:  912593383 heartbeat IPC: 0.36790 cumulative IPC: 0.37466 (Simulation time: 0 hr 11 min 19 sec) 
Heartbeat CPU  0 instructions:  403000001 cycles:  915131017 heartbeat IPC: 0.39407 cumulative IPC: 0.37472 (Simulation time: 0 hr 11 min 21 sec) 
Heartbeat CPU  0 instructions:  404000000 cycles:  917655637 heartbeat IPC: 0.39610 cumulative IPC: 0.37479 (Simulation time: 0 hr 11 min 23 sec) 
Heartbeat CPU  0 instructions:  405000000 cycles:  919798771 heartbeat IPC: 0.46661 cumulative IPC: 0.37503 (Simulation time: 0 hr 11 min 25 sec) 
Heartbeat CPU  0 instructions:  406000002 cycles:  922172591 heartbeat IPC: 0.42126 cumulative IPC: 0.37517 (Simulation time: 0 hr 11 min 26 sec) 
Heartbeat CPU  0 instructions:  407000000 cycles:  924802728 heartbeat IPC: 0.38021 cumulative IPC: 0.37518 (Simulation time: 0 hr 11 min 28 sec) 
Heartbeat CPU  0 instructions:  408000000 cycles:  927553135 heartbeat IPC: 0.36358 cumulative IPC: 0.37514 (Simulation time: 0 hr 11 min 30 sec) 
Heartbeat CPU  0 instructions:  409000002 cycles:  930436748 heartbeat IPC: 0.34679 cumulative IPC: 0.37504 (Simulation time: 0 hr 11 min 32 sec) 
Heartbeat CPU  0 instructions:  410000001 cycles:  933173683 heartbeat IPC: 0.36537 cumulative IPC: 0.37501 (Simulation time: 0 hr 11 min 34 sec) 
Heartbeat CPU  0 instructions:  411000000 cycles:  935890430 heartbeat IPC: 0.36809 cumulative IPC: 0.37499 (Simulation time: 0 hr 11 min 36 sec) 
Heartbeat CPU  0 instructions:  412000000 cycles:  938529531 heartbeat IPC: 0.37892 cumulative IPC: 0.37500 (Simulation time: 0 hr 11 min 38 sec) 
Heartbeat CPU  0 instructions:  413000000 cycles:  941305631 heartbeat IPC: 0.36022 cumulative IPC: 0.37495 (Simulation time: 0 hr 11 min 40 sec) 
Heartbeat CPU  0 instructions:  414000000 cycles:  943966568 heartbeat IPC: 0.37581 cumulative IPC: 0.37496 (Simulation time: 0 hr 11 min 42 sec) 
Heartbeat CPU  0 instructions:  415000000 cycles:  946681590 heartbeat IPC: 0.36832 cumulative IPC: 0.37493 (Simulation time: 0 hr 11 min 43 sec) 
Heartbeat CPU  0 instructions:  416000000 cycles:  949448921 heartbeat IPC: 0.36136 cumulative IPC: 0.37489 (Simulation time: 0 hr 11 min 45 sec) 
Heartbeat CPU  0 instructions:  417000003 cycles:  952096592 heartbeat IPC: 0.37769 cumulative IPC: 0.37490 (Simulation time: 0 hr 11 min 47 sec) 
Heartbeat CPU  0 instructions:  418000000 cycles:  954882639 heartbeat IPC: 0.35893 cumulative IPC: 0.37485 (Simulation time: 0 hr 11 min 49 sec) 
Heartbeat CPU  0 instructions:  419000000 cycles:  957686784 heartbeat IPC: 0.35661 cumulative IPC: 0.37479 (Simulation time: 0 hr 11 min 51 sec) 
Heartbeat CPU  0 instructions:  420000000 cycles:  960415092 heartbeat IPC: 0.36653 cumulative IPC: 0.37476 (Simulation time: 0 hr 11 min 53 sec) 
Heartbeat CPU  0 instructions:  421000000 cycles:  963209598 heartbeat IPC: 0.35785 cumulative IPC: 0.37470 (Simulation time: 0 hr 11 min 55 sec) 
Heartbeat CPU  0 instructions:  422000001 cycles:  965918273 heartbeat IPC: 0.36918 cumulative IPC: 0.37469 (Simulation time: 0 hr 11 min 57 sec) 
Heartbeat CPU  0 instructions:  423000000 cycles:  968415385 heartbeat IPC: 0.40046 cumulative IPC: 0.37476 (Simulation time: 0 hr 11 min 58 sec) 
Heartbeat CPU  0 instructions:  424000000 cycles:  970387608 heartbeat IPC: 0.50704 cumulative IPC: 0.37506 (Simulation time: 0 hr 12 min 0 sec) 
Heartbeat CPU  0 instructions:  425000001 cycles:  972812605 heartbeat IPC: 0.41237 cumulative IPC: 0.37517 (Simulation time: 0 hr 12 min 2 sec) 
Heartbeat CPU  0 instructions:  426000001 cycles:  975471597 heartbeat IPC: 0.37608 cumulative IPC: 0.37517 (Simulation time: 0 hr 12 min 4 sec) 
Heartbeat CPU  0 instructions:  427000000 cycles:  978195893 heartbeat IPC: 0.36707 cumulative IPC: 0.37515 (Simulation time: 0 hr 12 min 6 sec) 
Heartbeat CPU  0 instructions:  428000000 cycles:  981046136 heartbeat IPC: 0.35085 cumulative IPC: 0.37507 (Simulation time: 0 hr 12 min 7 sec) 
Heartbeat CPU  0 instructions:  429000001 cycles:  983843412 heartbeat IPC: 0.35749 cumulative IPC: 0.37501 (Simulation time: 0 hr 12 min 9 sec) 
Heartbeat CPU  0 instructions:  430000001 cycles:  986549486 heartbeat IPC: 0.36954 cumulative IPC: 0.37499 (Simulation time: 0 hr 12 min 11 sec) 
Heartbeat CPU  0 instructions:  431000000 cycles:  989239793 heartbeat IPC: 0.37170 cumulative IPC: 0.37498 (Simulation time: 0 hr 12 min 13 sec) 
Heartbeat CPU  0 instructions:  432000000 cycles:  991972902 heartbeat IPC: 0.36588 cumulative IPC: 0.37496 (Simulation time: 0 hr 12 min 15 sec) 
Heartbeat CPU  0 instructions:  433000001 cycles:  994745615 heartbeat IPC: 0.36066 cumulative IPC: 0.37491 (Simulation time: 0 hr 12 min 17 sec) 
Heartbeat CPU  0 instructions:  434000001 cycles:  997406032 heartbeat IPC: 0.37588 cumulative IPC: 0.37491 (Simulation time: 0 hr 12 min 19 sec) 
Heartbeat CPU  0 instructions:  435000000 cycles: 1000125095 heartbeat IPC: 0.36777 cumulative IPC: 0.37489 (Simulation time: 0 hr 12 min 21 sec) 
Heartbeat CPU  0 instructions:  436000000 cycles: 1002890042 heartbeat IPC: 0.36167 cumulative IPC: 0.37485 (Simulation time: 0 hr 12 min 22 sec) 
Heartbeat CPU  0 instructions:  437000000 cycles: 1005555216 heartbeat IPC: 0.37521 cumulative IPC: 0.37485 (Simulation time: 0 hr 12 min 24 sec) 
Heartbeat CPU  0 instructions:  438000000 cycles: 1008343881 heartbeat IPC: 0.35859 cumulative IPC: 0.37480 (Simulation time: 0 hr 12 min 26 sec) 
Heartbeat CPU  0 instructions:  439000003 cycles: 1011119945 heartbeat IPC: 0.36022 cumulative IPC: 0.37476 (Simulation time: 0 hr 12 min 28 sec) 
Heartbeat CPU  0 instructions:  440000000 cycles: 1013865731 heartbeat IPC: 0.36419 cumulative IPC: 0.37473 (Simulation time: 0 hr 12 min 30 sec) 
Heartbeat CPU  0 instructions:  441000001 cycles: 1016619998 heartbeat IPC: 0.36307 cumulative IPC: 0.37469 (Simulation time: 0 hr 12 min 32 sec) 
Heartbeat CPU  0 instructions:  442000000 cycles: 1019338917 heartbeat IPC: 0.36779 cumulative IPC: 0.37467 (Simulation time: 0 hr 12 min 34 sec) 
Heartbeat CPU  0 instructions:  443000002 cycles: 1021909630 heartbeat IPC: 0.38900 cumulative IPC: 0.37471 (Simulation time: 0 hr 12 min 36 sec) 
Heartbeat CPU  0 instructions:  444000000 cycles: 1024553795 heartbeat IPC: 0.37819 cumulative IPC: 0.37472 (Simulation time: 0 hr 12 min 38 sec) 
Heartbeat CPU  0 instructions:  445000000 cycles: 1027353323 heartbeat IPC: 0.35720 cumulative IPC: 0.37467 (Simulation time: 0 hr 12 min 40 sec) 
Heartbeat CPU  0 instructions:  446000003 cycles: 1030108038 heartbeat IPC: 0.36302 cumulative IPC: 0.37463 (Simulation time: 0 hr 12 min 42 sec) 
Heartbeat CPU  0 instructions:  447000002 cycles: 1032857614 heartbeat IPC: 0.36369 cumulative IPC: 0.37460 (Simulation time: 0 hr 12 min 44 sec) 
Heartbeat CPU  0 instructions:  448000000 cycles: 1035274408 heartbeat IPC: 0.41377 cumulative IPC: 0.37470 (Simulation time: 0 hr 12 min 45 sec) 
Heartbeat CPU  0 instructions:  449000000 cycles: 1037385131 heartbeat IPC: 0.47377 cumulative IPC: 0.37493 (Simulation time: 0 hr 12 min 47 sec) 
Heartbeat CPU  0 instructions:  450000000 cycles: 1040052405 heartbeat IPC: 0.37491 cumulative IPC: 0.37493 (Simulation time: 0 hr 12 min 49 sec) 
Heartbeat CPU  0 instructions:  451000000 cycles: 1042775683 heartbeat IPC: 0.36720 cumulative IPC: 0.37490 (Simulation time: 0 hr 12 min 51 sec) 
Heartbeat CPU  0 instructions:  452000000 cycles: 1045478809 heartbeat IPC: 0.36994 cumulative IPC: 0.37489 (Simulation time: 0 hr 12 min 53 sec) 
Heartbeat CPU  0 instructions:  453000000 cycles: 1048146604 heartbeat IPC: 0.37484 cumulative IPC: 0.37489 (Simulation time: 0 hr 12 min 54 sec) 
Heartbeat CPU  0 instructions:  454000001 cycles: 1050875416 heartbeat IPC: 0.36646 cumulative IPC: 0.37486 (Simulation time: 0 hr 12 min 56 sec) 
Heartbeat CPU  0 instructions:  455000000 cycles: 1053608570 heartbeat IPC: 0.36588 cumulative IPC: 0.37484 (Simulation time: 0 hr 12 min 58 sec) 
Heartbeat CPU  0 instructions:  456000000 cycles: 1056272073 heartbeat IPC: 0.37545 cumulative IPC: 0.37484 (Simulation time: 0 hr 13 min 0 sec) 
Heartbeat CPU  0 instructions:  457000003 cycles: 1059026239 heartbeat IPC: 0.36309 cumulative IPC: 0.37481 (Simulation time: 0 hr 13 min 2 sec) 
Heartbeat CPU  0 instructions:  458000003 cycles: 1061739782 heartbeat IPC: 0.36852 cumulative IPC: 0.37479 (Simulation time: 0 hr 13 min 4 sec) 
Heartbeat CPU  0 instructions:  459000001 cycles: 1064541028 heartbeat IPC: 0.35698 cumulative IPC: 0.37474 (Simulation time: 0 hr 13 min 6 sec) 
Heartbeat CPU  0 instructions:  460000000 cycles: 1067271855 heartbeat IPC: 0.36619 cumulative IPC: 0.37471 (Simulation time: 0 hr 13 min 7 sec) 
Heartbeat CPU  0 instructions:  461000002 cycles: 1069973485 heartbeat IPC: 0.37015 cumulative IPC: 0.37470 (Simulation time: 0 hr 13 min 9 sec) 
Heartbeat CPU  0 instructions:  462000003 cycles: 1072589067 heartbeat IPC: 0.38232 cumulative IPC: 0.37472 (Simulation time: 0 hr 13 min 11 sec) 
Heartbeat CPU  0 instructions:  463000001 cycles: 1074575728 heartbeat IPC: 0.50336 cumulative IPC: 0.37498 (Simulation time: 0 hr 13 min 13 sec) 
Heartbeat CPU  0 instructions:  464000000 cycles: 1077485180 heartbeat IPC: 0.34371 cumulative IPC: 0.37489 (Simulation time: 0 hr 13 min 15 sec) 
Heartbeat CPU  0 instructions:  465000001 cycles: 1080305866 heartbeat IPC: 0.35452 cumulative IPC: 0.37483 (Simulation time: 0 hr 13 min 17 sec) 
Heartbeat CPU  0 instructions:  466000000 cycles: 1082755259 heartbeat IPC: 0.40826 cumulative IPC: 0.37492 (Simulation time: 0 hr 13 min 18 sec) 
Heartbeat CPU  0 instructions:  467000000 cycles: 1085393769 heartbeat IPC: 0.37900 cumulative IPC: 0.37493 (Simulation time: 0 hr 13 min 20 sec) 
Heartbeat CPU  0 instructions:  468000000 cycles: 1088111784 heartbeat IPC: 0.36792 cumulative IPC: 0.37491 (Simulation time: 0 hr 13 min 22 sec) 
Heartbeat CPU  0 instructions:  469000001 cycles: 1090812232 heartbeat IPC: 0.37031 cumulative IPC: 0.37489 (Simulation time: 0 hr 13 min 24 sec) 
Heartbeat CPU  0 instructions:  470000001 cycles: 1093519776 heartbeat IPC: 0.36934 cumulative IPC: 0.37488 (Simulation time: 0 hr 13 min 26 sec) 
Heartbeat CPU  0 instructions:  471000000 cycles: 1096145675 heartbeat IPC: 0.38082 cumulative IPC: 0.37489 (Simulation time: 0 hr 13 min 28 sec) 
Heartbeat CPU  0 instructions:  472000000 cycles: 1098919316 heartbeat IPC: 0.36054 cumulative IPC: 0.37485 (Simulation time: 0 hr 13 min 30 sec) 
Heartbeat CPU  0 instructions:  473000002 cycles: 1101591642 heartbeat IPC: 0.37421 cumulative IPC: 0.37485 (Simulation time: 0 hr 13 min 31 sec) 
Heartbeat CPU  0 instructions:  474000001 cycles: 1104310263 heartbeat IPC: 0.36783 cumulative IPC: 0.37483 (Simulation time: 0 hr 13 min 33 sec) 
Heartbeat CPU  0 instructions:  475000002 cycles: 1107076984 heartbeat IPC: 0.36144 cumulative IPC: 0.37480 (Simulation time: 0 hr 13 min 35 sec) 
Heartbeat CPU  0 instructions:  476000000 cycles: 1109788684 heartbeat IPC: 0.36877 cumulative IPC: 0.37478 (Simulation time: 0 hr 13 min 37 sec) 
Heartbeat CPU  0 instructions:  477000001 cycles: 1112573602 heartbeat IPC: 0.35908 cumulative IPC: 0.37474 (Simulation time: 0 hr 13 min 39 sec) 
Heartbeat CPU  0 instructions:  478000001 cycles: 1115285251 heartbeat IPC: 0.36878 cumulative IPC: 0.37472 (Simulation time: 0 hr 13 min 41 sec) 
Heartbeat CPU  0 instructions:  479000002 cycles: 1117970394 heartbeat IPC: 0.37242 cumulative IPC: 0.37471 (Simulation time: 0 hr 13 min 43 sec) 
Heartbeat CPU  0 instructions:  480000000 cycles: 1120759951 heartbeat IPC: 0.35848 cumulative IPC: 0.37467 (Simulation time: 0 hr 13 min 45 sec) 
Heartbeat CPU  0 instructions:  481000000 cycles: 1123568586 heartbeat IPC: 0.35604 cumulative IPC: 0.37462 (Simulation time: 0 hr 13 min 47 sec) 
Heartbeat CPU  0 instructions:  482000000 cycles: 1125523166 heartbeat IPC: 0.51162 cumulative IPC: 0.37488 (Simulation time: 0 hr 13 min 48 sec) 
Heartbeat CPU  0 instructions:  483000003 cycles: 1128336958 heartbeat IPC: 0.35539 cumulative IPC: 0.37483 (Simulation time: 0 hr 13 min 50 sec) 
Heartbeat CPU  0 instructions:  484000000 cycles: 1131106018 heartbeat IPC: 0.36113 cumulative IPC: 0.37479 (Simulation time: 0 hr 13 min 52 sec) 
Heartbeat CPU  0 instructions:  485000001 cycles: 1133949710 heartbeat IPC: 0.35166 cumulative IPC: 0.37473 (Simulation time: 0 hr 13 min 54 sec) 
Heartbeat CPU  0 instructions:  486000000 cycles: 1136666343 heartbeat IPC: 0.36810 cumulative IPC: 0.37471 (Simulation time: 0 hr 13 min 56 sec) 
Heartbeat CPU  0 instructions:  487000002 cycles: 1139055374 heartbeat IPC: 0.41858 cumulative IPC: 0.37481 (Simulation time: 0 hr 13 min 57 sec) 
Heartbeat CPU  0 instructions:  488000000 cycles: 1141879543 heartbeat IPC: 0.35409 cumulative IPC: 0.37475 (Simulation time: 0 hr 13 min 59 sec) 
Heartbeat CPU  0 instructions:  489000001 cycles: 1144688347 heartbeat IPC: 0.35602 cumulative IPC: 0.37470 (Simulation time: 0 hr 14 min 1 sec) 
Heartbeat CPU  0 instructions:  490000001 cycles: 1147335325 heartbeat IPC: 0.37779 cumulative IPC: 0.37471 (Simulation time: 0 hr 14 min 3 sec) 
Heartbeat CPU  0 instructions:  491000001 cycles: 1150038752 heartbeat IPC: 0.36990 cumulative IPC: 0.37470 (Simulation time: 0 hr 14 min 5 sec) 
Heartbeat CPU  0 instructions:  492000000 cycles: 1152722521 heartbeat IPC: 0.37261 cumulative IPC: 0.37469 (Simulation time: 0 hr 14 min 7 sec) 
Heartbeat CPU  0 instructions:  493000000 cycles: 1155497607 heartbeat IPC: 0.36035 cumulative IPC: 0.37466 (Simulation time: 0 hr 14 min 9 sec) 
Heartbeat CPU  0 instructions:  494000000 cycles: 1158211177 heartbeat IPC: 0.36852 cumulative IPC: 0.37464 (Simulation time: 0 hr 14 min 10 sec) 
Heartbeat CPU  0 instructions:  495000000 cycles: 1161025284 heartbeat IPC: 0.35535 cumulative IPC: 0.37459 (Simulation time: 0 hr 14 min 12 sec) 
Heartbeat CPU  0 instructions:  496000000 cycles: 1163743473 heartbeat IPC: 0.36789 cumulative IPC: 0.37457 (Simulation time: 0 hr 14 min 14 sec) 
Heartbeat CPU  0 instructions:  497000000 cycles: 1166438318 heartbeat IPC: 0.37108 cumulative IPC: 0.37456 (Simulation time: 0 hr 14 min 16 sec) 
Heartbeat CPU  0 instructions:  498000001 cycles: 1168687927 heartbeat IPC: 0.44452 cumulative IPC: 0.37471 (Simulation time: 0 hr 14 min 18 sec) 
Heartbeat CPU  0 instructions:  499000001 cycles: 1171063383 heartbeat IPC: 0.42097 cumulative IPC: 0.37481 (Simulation time: 0 hr 14 min 20 sec) 
Heartbeat CPU  0 instructions:  500000000 cycles: 1173460859 heartbeat IPC: 0.41710 cumulative IPC: 0.37491 (Simulation time: 0 hr 14 min 21 sec) 
Heartbeat CPU  0 instructions:  501000001 cycles: 1176142461 heartbeat IPC: 0.37291 cumulative IPC: 0.37490 (Simulation time: 0 hr 14 min 23 sec) 
Heartbeat CPU  0 instructions:  502000003 cycles: 1178950568 heartbeat IPC: 0.35611 cumulative IPC: 0.37485 (Simulation time: 0 hr 14 min 25 sec) 
Heartbeat CPU  0 instructions:  503000000 cycles: 1180689447 heartbeat IPC: 0.57508 cumulative IPC: 0.37518 (Simulation time: 0 hr 14 min 27 sec) 
Heartbeat CPU  0 instructions:  504000000 cycles: 1181670098 heartbeat IPC: 1.01973 cumulative IPC: 0.37577 (Simulation time: 0 hr 14 min 29 sec) 
Heartbeat CPU  0 instructions:  505000000 cycles: 1182697677 heartbeat IPC: 0.97316 cumulative IPC: 0.37634 (Simulation time: 0 hr 14 min 31 sec) 
Heartbeat CPU  0 instructions:  506000003 cycles: 1183705202 heartbeat IPC: 0.99253 cumulative IPC: 0.37691 (Simulation time: 0 hr 14 min 33 sec) 
Heartbeat CPU  0 instructions:  507000002 cycles: 1184800011 heartbeat IPC: 0.91340 cumulative IPC: 0.37746 (Simulation time: 0 hr 14 min 36 sec) 
Heartbeat CPU  0 instructions:  508000000 cycles: 1186649164 heartbeat IPC: 0.54079 cumulative IPC: 0.37774 (Simulation time: 0 hr 14 min 38 sec) 
Heartbeat CPU  0 instructions:  509000000 cycles: 1188854086 heartbeat IPC: 0.45353 cumulative IPC: 0.37789 (Simulation time: 0 hr 14 min 41 sec) 
Heartbeat CPU  0 instructions:  510000003 cycles: 1191103156 heartbeat IPC: 0.44463 cumulative IPC: 0.37803 (Simulation time: 0 hr 14 min 44 sec) 
Heartbeat CPU  0 instructions:  511000001 cycles: 1193797885 heartbeat IPC: 0.37109 cumulative IPC: 0.37801 (Simulation time: 0 hr 14 min 47 sec) 
Heartbeat CPU  0 instructions:  512000000 cycles: 1197093039 heartbeat IPC: 0.30348 cumulative IPC: 0.37779 (Simulation time: 0 hr 14 min 51 sec) 
Heartbeat CPU  0 instructions:  513000002 cycles: 1200458308 heartbeat IPC: 0.29715 cumulative IPC: 0.37754 (Simulation time: 0 hr 14 min 55 sec) 
Heartbeat CPU  0 instructions:  514000001 cycles: 1202389229 heartbeat IPC: 0.51789 cumulative IPC: 0.37779 (Simulation time: 0 hr 14 min 57 sec) 
Heartbeat CPU  0 instructions:  515000001 cycles: 1203531257 heartbeat IPC: 0.87564 cumulative IPC: 0.37831 (Simulation time: 0 hr 15 min 0 sec) 
Heartbeat CPU  0 instructions:  516000000 cycles: 1204657254 heartbeat IPC: 0.88810 cumulative IPC: 0.37883 (Simulation time: 0 hr 15 min 2 sec) 
Heartbeat CPU  0 instructions:  517000001 cycles: 1205799618 heartbeat IPC: 0.87538 cumulative IPC: 0.37934 (Simulation time: 0 hr 15 min 4 sec) 
Heartbeat CPU  0 instructions:  518000002 cycles: 1208050410 heartbeat IPC: 0.44429 cumulative IPC: 0.37948 (Simulation time: 0 hr 15 min 7 sec) 
Heartbeat CPU  0 instructions:  519000002 cycles: 1210394689 heartbeat IPC: 0.42657 cumulative IPC: 0.37958 (Simulation time: 0 hr 15 min 10 sec) 
Heartbeat CPU  0 instructions:  520000000 cycles: 1212680178 heartbeat IPC: 0.43754 cumulative IPC: 0.37970 (Simulation time: 0 hr 15 min 13 sec) 
Heartbeat CPU  0 instructions:  521000000 cycles: 1215673506 heartbeat IPC: 0.33408 cumulative IPC: 0.37957 (Simulation time: 0 hr 15 min 16 sec) 
Heartbeat CPU  0 instructions:  522000002 cycles: 1219034185 heartbeat IPC: 0.29756 cumulative IPC: 0.37933 (Simulation time: 0 hr 15 min 20 sec) 
Heartbeat CPU  0 instructions:  523000000 cycles: 1222152971 heartbeat IPC: 0.32064 cumulative IPC: 0.37916 (Simulation time: 0 hr 15 min 24 sec) 
Heartbeat CPU  0 instructions:  524000000 cycles: 1224402957 heartbeat IPC: 0.44445 cumulative IPC: 0.37929 (Simulation time: 0 hr 15 min 25 sec) 
Heartbeat CPU  0 instructions:  525000002 cycles: 1226997392 heartbeat IPC: 0.38544 cumulative IPC: 0.37931 (Simulation time: 0 hr 15 min 27 sec) 
Heartbeat CPU  0 instructions:  526000000 cycles: 1229324612 heartbeat IPC: 0.42970 cumulative IPC: 0.37941 (Simulation time: 0 hr 15 min 29 sec) 
Heartbeat CPU  0 instructions:  527000001 cycles: 1232118346 heartbeat IPC: 0.35794 cumulative IPC: 0.37936 (Simulation time: 0 hr 15 min 31 sec) 
Heartbeat CPU  0 instructions:  528000000 cycles: 1234395349 heartbeat IPC: 0.43917 cumulative IPC: 0.37948 (Simulation time: 0 hr 15 min 33 sec) 
Heartbeat CPU  0 instructions:  529000000 cycles: 1236362144 heartbeat IPC: 0.50844 cumulative IPC: 0.37970 (Simulation time: 0 hr 15 min 34 sec) 
Heartbeat CPU  0 instructions:  530000003 cycles: 1239193207 heartbeat IPC: 0.35323 cumulative IPC: 0.37964 (Simulation time: 0 hr 15 min 36 sec) 
Heartbeat CPU  0 instructions:  531000001 cycles: 1241622178 heartbeat IPC: 0.41170 cumulative IPC: 0.37971 (Simulation time: 0 hr 15 min 38 sec) 
Heartbeat CPU  0 instructions:  532000000 cycles: 1244095831 heartbeat IPC: 0.40426 cumulative IPC: 0.37976 (Simulation time: 0 hr 15 min 40 sec) 
Heartbeat CPU  0 instructions:  533000002 cycles: 1246861215 heartbeat IPC: 0.36161 cumulative IPC: 0.37972 (Simulation time: 0 hr 15 min 42 sec) 
Heartbeat CPU  0 instructions:  534000000 cycles: 1249234362 heartbeat IPC: 0.42138 cumulative IPC: 0.37980 (Simulation time: 0 hr 15 min 44 sec) 
Heartbeat CPU  0 instructions:  535000000 cycles: 1251338325 heartbeat IPC: 0.47529 cumulative IPC: 0.37998 (Simulation time: 0 hr 15 min 45 sec) 
Heartbeat CPU  0 instructions:  536000000 cycles: 1253930587 heartbeat IPC: 0.38576 cumulative IPC: 0.37999 (Simulation time: 0 hr 15 min 47 sec) 
Heartbeat CPU  0 instructions:  537000001 cycles: 1256319028 heartbeat IPC: 0.41868 cumulative IPC: 0.38007 (Simulation time: 0 hr 15 min 49 sec) 
Heartbeat CPU  0 instructions:  538000001 cycles: 1258862081 heartbeat IPC: 0.39323 cumulative IPC: 0.38010 (Simulation time: 0 hr 15 min 51 sec) 
Heartbeat CPU  0 instructions:  539000000 cycles: 1261383399 heartbeat IPC: 0.39662 cumulative IPC: 0.38014 (Simulation time: 0 hr 15 min 53 sec) 
Heartbeat CPU  0 instructions:  540000000 cycles: 1264051735 heartbeat IPC: 0.37477 cumulative IPC: 0.38012 (Simulation time: 0 hr 15 min 55 sec) 
Heartbeat CPU  0 instructions:  541000001 cycles: 1266552751 heartbeat IPC: 0.39984 cumulative IPC: 0.38017 (Simulation time: 0 hr 15 min 57 sec) 
Heartbeat CPU  0 instructions:  542000002 cycles: 1268910031 heartbeat IPC: 0.42422 cumulative IPC: 0.38026 (Simulation time: 0 hr 15 min 58 sec) 
Heartbeat CPU  0 instructions:  543000003 cycles: 1271510749 heartbeat IPC: 0.38451 cumulative IPC: 0.38027 (Simulation time: 0 hr 16 min 0 sec) 
Heartbeat CPU  0 instructions:  544000000 cycles: 1274076125 heartbeat IPC: 0.38981 cumulative IPC: 0.38029 (Simulation time: 0 hr 16 min 2 sec) 
Heartbeat CPU  0 instructions:  545000000 cycles: 1276289413 heartbeat IPC: 0.45182 cumulative IPC: 0.38042 (Simulation time: 0 hr 16 min 4 sec) 
Heartbeat CPU  0 instructions:  546000000 cycles: 1278615048 heartbeat IPC: 0.42999 cumulative IPC: 0.38052 (Simulation time: 0 hr 16 min 6 sec) 
Heartbeat CPU  0 instructions:  547000000 cycles: 1281074897 heartbeat IPC: 0.40653 cumulative IPC: 0.38057 (Simulation time: 0 hr 16 min 8 sec) 
Heartbeat CPU  0 instructions:  548000000 cycles: 1283748102 heartbeat IPC: 0.37408 cumulative IPC: 0.38056 (Simulation time: 0 hr 16 min 9 sec) 
Heartbeat CPU  0 instructions:  549000000 cycles: 1286349575 heartbeat IPC: 0.38440 cumulative IPC: 0.38057 (Simulation time: 0 hr 16 min 11 sec) 
Heartbeat CPU  0 instructions:  550000001 cycles: 1288967419 heartbeat IPC: 0.38199 cumulative IPC: 0.38057 (Simulation time: 0 hr 16 min 13 sec) 
Heartbeat CPU  0 instructions:  551000001 cycles: 1291626781 heartbeat IPC: 0.37603 cumulative IPC: 0.38056 (Simulation time: 0 hr 16 min 15 sec) 
Heartbeat CPU  0 instructions:  552000000 cycles: 1294280894 heartbeat IPC: 0.37677 cumulative IPC: 0.38055 (Simulation time: 0 hr 16 min 17 sec) 
Heartbeat CPU  0 instructions:  553000002 cycles: 1296861104 heartbeat IPC: 0.38757 cumulative IPC: 0.38057 (Simulation time: 0 hr 16 min 19 sec) 
Heartbeat CPU  0 instructions:  554000000 cycles: 1299536206 heartbeat IPC: 0.37382 cumulative IPC: 0.38055 (Simulation time: 0 hr 16 min 21 sec) 
Heartbeat CPU  0 instructions:  555000000 cycles: 1302303739 heartbeat IPC: 0.36133 cumulative IPC: 0.38051 (Simulation time: 0 hr 16 min 22 sec) 
Heartbeat CPU  0 instructions:  556000000 cycles: 1304833034 heartbeat IPC: 0.39537 cumulative IPC: 0.38054 (Simulation time: 0 hr 16 min 24 sec) 
Heartbeat CPU  0 instructions:  557000000 cycles: 1307579828 heartbeat IPC: 0.36406 cumulative IPC: 0.38050 (Simulation time: 0 hr 16 min 26 sec) 
Heartbeat CPU  0 instructions:  558000000 cycles: 1310230247 heartbeat IPC: 0.37730 cumulative IPC: 0.38049 (Simulation time: 0 hr 16 min 28 sec) 
Heartbeat CPU  0 instructions:  559000000 cycles: 1312979803 heartbeat IPC: 0.36370 cumulative IPC: 0.38046 (Simulation time: 0 hr 16 min 30 sec) 
Heartbeat CPU  0 instructions:  560000000 cycles: 1315711267 heartbeat IPC: 0.36610 cumulative IPC: 0.38042 (Simulation time: 0 hr 16 min 32 sec) 
Heartbeat CPU  0 instructions:  561000001 cycles: 1318374752 heartbeat IPC: 0.37545 cumulative IPC: 0.38041 (Simulation time: 0 hr 16 min 34 sec) 
Heartbeat CPU  0 instructions:  562000000 cycles: 1321062261 heartbeat IPC: 0.37209 cumulative IPC: 0.38039 (Simulation time: 0 hr 16 min 36 sec) 
Heartbeat CPU  0 instructions:  563000001 cycles: 1323854975 heartbeat IPC: 0.35807 cumulative IPC: 0.38034 (Simulation time: 0 hr 16 min 38 sec) 
Heartbeat CPU  0 instructions:  564000000 cycles: 1326366854 heartbeat IPC: 0.39811 cumulative IPC: 0.38038 (Simulation time: 0 hr 16 min 40 sec) 
Heartbeat CPU  0 instructions:  565000002 cycles: 1329087810 heartbeat IPC: 0.36752 cumulative IPC: 0.38035 (Simulation time: 0 hr 16 min 41 sec) 
Heartbeat CPU  0 instructions:  566000000 cycles: 1331716455 heartbeat IPC: 0.38042 cumulative IPC: 0.38035 (Simulation time: 0 hr 16 min 43 sec) 
Heartbeat CPU  0 instructions:  567000003 cycles: 1334388712 heartbeat IPC: 0.37422 cumulative IPC: 0.38034 (Simulation time: 0 hr 16 min 45 sec) 
Heartbeat CPU  0 instructions:  568000000 cycles: 1337074965 heartbeat IPC: 0.37226 cumulative IPC: 0.38032 (Simulation time: 0 hr 16 min 47 sec) 
Heartbeat CPU  0 instructions:  569000002 cycles: 1339895252 heartbeat IPC: 0.35457 cumulative IPC: 0.38026 (Simulation time: 0 hr 16 min 49 sec) 
Heartbeat CPU  0 instructions:  570000001 cycles: 1342641902 heartbeat IPC: 0.36408 cumulative IPC: 0.38023 (Simulation time: 0 hr 16 min 51 sec) 
Heartbeat CPU  0 instructions:  571000001 cycles: 1345378974 heartbeat IPC: 0.36535 cumulative IPC: 0.38019 (Simulation time: 0 hr 16 min 53 sec) 
Heartbeat CPU  0 instructions:  572000000 cycles: 1348189310 heartbeat IPC: 0.35583 cumulative IPC: 0.38014 (Simulation time: 0 hr 16 min 55 sec) 
Heartbeat CPU  0 instructions:  573000000 cycles: 1350947243 heartbeat IPC: 0.36259 cumulative IPC: 0.38010 (Simulation time: 0 hr 16 min 57 sec) 
Heartbeat CPU  0 instructions:  574000000 cycles: 1353738879 heartbeat IPC: 0.35821 cumulative IPC: 0.38005 (Simulation time: 0 hr 16 min 59 sec) 
Heartbeat CPU  0 instructions:  575000002 cycles: 1356527575 heartbeat IPC: 0.35859 cumulative IPC: 0.38000 (Simulation time: 0 hr 17 min 0 sec) 
Heartbeat CPU  0 instructions:  576000000 cycles: 1359241555 heartbeat IPC: 0.36846 cumulative IPC: 0.37998 (Simulation time: 0 hr 17 min 2 sec) 
Heartbeat CPU  0 instructions:  577000002 cycles: 1361984939 heartbeat IPC: 0.36451 cumulative IPC: 0.37994 (Simulation time: 0 hr 17 min 4 sec) 
Heartbeat CPU  0 instructions:  578000001 cycles: 1364583959 heartbeat IPC: 0.38476 cumulative IPC: 0.37995 (Simulation time: 0 hr 17 min 6 sec) 
Heartbeat CPU  0 instructions:  579000002 cycles: 1367285319 heartbeat IPC: 0.37018 cumulative IPC: 0.37993 (Simulation time: 0 hr 17 min 8 sec) 
Heartbeat CPU  0 instructions:  580000000 cycles: 1369988521 heartbeat IPC: 0.36993 cumulative IPC: 0.37991 (Simulation time: 0 hr 17 min 10 sec) 
Heartbeat CPU  0 instructions:  581000003 cycles: 1372673004 heartbeat IPC: 0.37251 cumulative IPC: 0.37990 (Simulation time: 0 hr 17 min 12 sec) 
Heartbeat CPU  0 instructions:  582000001 cycles: 1375452444 heartbeat IPC: 0.35978 cumulative IPC: 0.37985 (Simulation time: 0 hr 17 min 14 sec) 
Heartbeat CPU  0 instructions:  583000000 cycles: 1378120531 heartbeat IPC: 0.37480 cumulative IPC: 0.37984 (Simulation time: 0 hr 17 min 16 sec) 
Heartbeat CPU  0 instructions:  584000000 cycles: 1380754728 heartbeat IPC: 0.37962 cumulative IPC: 0.37984 (Simulation time: 0 hr 17 min 18 sec) 
Heartbeat CPU  0 instructions:  585000002 cycles: 1383492188 heartbeat IPC: 0.36530 cumulative IPC: 0.37981 (Simulation time: 0 hr 17 min 20 sec) 
Heartbeat CPU  0 instructions:  586000000 cycles: 1386206964 heartbeat IPC: 0.36835 cumulative IPC: 0.37978 (Simulation time: 0 hr 17 min 22 sec) 
Heartbeat CPU  0 instructions:  587000000 cycles: 1388737422 heartbeat IPC: 0.39519 cumulative IPC: 0.37982 (Simulation time: 0 hr 17 min 23 sec) 
Heartbeat CPU  0 instructions:  588000000 cycles: 1391397910 heartbeat IPC: 0.37587 cumulative IPC: 0.37981 (Simulation time: 0 hr 17 min 25 sec) 
Heartbeat CPU  0 instructions:  589000002 cycles: 1393962588 heartbeat IPC: 0.38991 cumulative IPC: 0.37983 (Simulation time: 0 hr 17 min 27 sec) 
Heartbeat CPU  0 instructions:  590000000 cycles: 1396581532 heartbeat IPC: 0.38183 cumulative IPC: 0.37983 (Simulation time: 0 hr 17 min 29 sec) 
Heartbeat CPU  0 instructions:  591000000 cycles: 1399068320 heartbeat IPC: 0.40213 cumulative IPC: 0.37987 (Simulation time: 0 hr 17 min 31 sec) 
Heartbeat CPU  0 instructions:  592000000 cycles: 1401788319 heartbeat IPC: 0.36765 cumulative IPC: 0.37985 (Simulation time: 0 hr 17 min 33 sec) 
Heartbeat CPU  0 instructions:  593000001 cycles: 1404480089 heartbeat IPC: 0.37150 cumulative IPC: 0.37983 (Simulation time: 0 hr 17 min 35 sec) 
Heartbeat CPU  0 instructions:  594000000 cycles: 1407069906 heartbeat IPC: 0.38613 cumulative IPC: 0.37984 (Simulation time: 0 hr 17 min 36 sec) 
Heartbeat CPU  0 instructions:  595000002 cycles: 1409811873 heartbeat IPC: 0.36470 cumulative IPC: 0.37981 (Simulation time: 0 hr 17 min 38 sec) 
Heartbeat CPU  0 instructions:  596000000 cycles: 1412179820 heartbeat IPC: 0.42231 cumulative IPC: 0.37989 (Simulation time: 0 hr 17 min 40 sec) 
Heartbeat CPU  0 instructions:  597000000 cycles: 1414603022 heartbeat IPC: 0.41268 cumulative IPC: 0.37995 (Simulation time: 0 hr 17 min 42 sec) 
Heartbeat CPU  0 instructions:  598000000 cycles: 1417092595 heartbeat IPC: 0.40168 cumulative IPC: 0.37999 (Simulation time: 0 hr 17 min 44 sec) 
Heartbeat CPU  0 instructions:  599000001 cycles: 1419779199 heartbeat IPC: 0.37222 cumulative IPC: 0.37997 (Simulation time: 0 hr 17 min 45 sec) 
Heartbeat CPU  0 instructions:  600000000 cycles: 1422384952 heartbeat IPC: 0.38377 cumulative IPC: 0.37998 (Simulation time: 0 hr 17 min 47 sec) 
Finished CPU 0 instructions: 500000000 cycles: 1315850710 cumulative IPC: 0.37998 (Simulation time: 0 hr 17 min 47 sec) 

ChampSim completed all CPUs

[ROI Statistics]
Core_0_instructions 500000000
Core_0_cycles 1315850710
Core_0_IPC 0.37998

Core_0_branch_prediction_accuracy 85.44512
Core_0_branch_MPKI 23.17008
Core_0_average_ROB_occupancy_at_mispredict 40.38895

Core_0_L1D_total_access 157707315
Core_0_L1D_total_hit 155639881
Core_0_L1D_total_miss 2067434
Core_0_L1D_loads 90377542
Core_0_L1D_load_hit 89664912
Core_0_L1D_load_miss 712630
Core_0_L1D_RFOs 67329773
Core_0_L1D_RFO_hit 65974969
Core_0_L1D_RFO_miss 1354804
Core_0_L1D_prefetches 0
Core_0_L1D_prefetch_hit 0
Core_0_L1D_prefetch_miss 0
Core_0_L1D_writebacks 0
Core_0_L1D_writeback_hit 0
Core_0_L1D_writeback_miss 0
Core_0_L1D_prefetch_requested 0
Core_0_L1D_prefetch_dropped 0
Core_0_L1D_prefetch_issued 0
Core_0_L1D_prefetch_filled 0
Core_0_L1D_prefetch_useful 0
Core_0_L1D_prefetch_useless 0
Core_0_L1D_prefetch_late 0
Core_0_L1D_average_miss_latency 340.40866

Core_0_L1D_rq_access 127065807
Core_0_L1D_rq_forward 0
Core_0_L1D_rq_merged 36552361
Core_0_L1D_rq_to_cache 90513060
Core_0_L1D_rq_full 0

Core_0_L1D_wq_access 71549319
Core_0_L1D_wq_forward 386
Core_0_L1D_wq_merged 408651
Core_0_L1D_wq_to_cache 71140668
Core_0_L1D_wq_full 30973660

Core_0_L1D_pq_access 0
Core_0_L1D_pq_forward 0
Core_0_L1D_pq_merged 0
Core_0_L1D_pq_to_cache 0
Core_0_L1D_pq_full 0

Core_0_L1D_acc_epochs 1383473
Core_0_L1D_acc_level_0 1383473
Core_0_L1D_acc_level_1 0
Core_0_L1D_acc_level_2 0
Core_0_L1D_acc_level_3 0
Core_0_L1D_acc_level_4 0
Core_0_L1D_acc_level_5 0
Core_0_L1D_acc_level_6 0
Core_0_L1D_acc_level_7 0
Core_0_L1D_acc_level_8 0
Core_0_L1D_acc_level_9 0

Core_0_L1I_total_access 98575385
Core_0_L1I_total_hit 96955830
Core_0_L1I_total_miss 1619555
Core_0_L1I_loads 98575385
Core_0_L1I_load_hit 96955830
Core_0_L1I_load_miss 1619555
Core_0_L1I_RFOs 0
Core_0_L1I_RFO_hit 0
Core_0_L1I_RFO_miss 0
Core_0_L1I_prefetches 0
Core_0_L1I_prefetch_hit 0
Core_0_L1I_prefetch_miss 0
Core_0_L1I_writebacks 0
Core_0_L1I_writeback_hit 0
Core_0_L1I_writeback_miss 0
Core_0_L1I_prefetch_requested 0
Core_0_L1I_prefetch_dropped 0
Core_0_L1I_prefetch_issued 0
Core_0_L1I_prefetch_filled 0
Core_0_L1I_prefetch_useful 0
Core_0_L1I_prefetch_useless 0
Core_0_L1I_prefetch_late 0
Core_0_L1I_average_miss_latency 12.73840

Core_0_L1I_rq_access 499999979
Core_0_L1I_rq_forward 0
Core_0_L1I_rq_merged 400843587
Core_0_L1I_rq_to_cache 99156392
Core_0_L1I_rq_full 0

Core_0_L1I_wq_access 0
Core_0_L1I_wq_forward 0
Core_0_L1I_wq_merged 0
Core_0_L1I_wq_to_cache 0
Core_0_L1I_wq_full 0

Core_0_L1I_pq_access 0
Core_0_L1I_pq_forward 0
Core_0_L1I_pq_merged 0
Core_0_L1I_pq_to_cache 0
Core_0_L1I_pq_full 0

Core_0_L1I_acc_epochs 1383473
Core_0_L1I_acc_level_0 1383473
Core_0_L1I_acc_level_1 0
Core_0_L1I_acc_level_2 0
Core_0_L1I_acc_level_3 0
Core_0_L1I_acc_level_4 0
Core_0_L1I_acc_level_5 0
Core_0_L1I_acc_level_6 0
Core_0_L1I_acc_level_7 0
Core_0_L1I_acc_level_8 0
Core_0_L1I_acc_level_9 0

Core_0_L2C_total_access 5282228
Core_0_L2C_total_hit 4109146
Core_0_L2C_total_miss 1173082
Core_0_L2C_loads 2332179
Core_0_L2C_load_hit 1975616
Core_0_L2C_load_miss 356563
Core_0_L2C_RFOs 1354777
Core_0_L2C_RFO_hit 540359
Core_0_L2C_RFO_miss 814418
Core_0_L2C_prefetches 0
Core_0_L2C_prefetch_hit 0
Core_0_L2C_prefetch_miss 0
Core_0_L2C_writebacks 1595272
Core_0_L2C_writeback_hit 1593171
Core_0_L2C_writeback_miss 2101
Core_0_L2C_prefetch_requested 0
Core_0_L2C_prefetch_dropped 0
Core_0_L2C_prefetch_issued 0
Core_0_L2C_prefetch_filled 0
Core_0_L2C_prefetch_useful 0
Core_0_L2C_prefetch_useless 0
Core_0_L2C_prefetch_late 0
Core_0_L2C_average_miss_latency 576.74944

Core_0_L2C_rq_access 3686989
Core_0_L2C_rq_forward 0
Core_0_L2C_rq_merged 0
Core_0_L2C_rq_to_cache 3686956
Core_0_L2C_rq_full 0

Core_0_L2C_wq_access 1595272
Core_0_L2C_wq_forward 33
Core_0_L2C_wq_merged 0
Core_0_L2C_wq_to_cache 1595272
Core_0_L2C_wq_full 0

Core_0_L2C_pq_access 0
Core_0_L2C_pq_forward 0
Core_0_L2C_pq_merged 0
Core_0_L2C_pq_to_cache 0
Core_0_L2C_pq_full 0

Core_0_L2C_acc_epochs 1383473
Core_0_L2C_acc_level_0 1383473
Core_0_L2C_acc_level_1 0
Core_0_L2C_acc_level_2 0
Core_0_L2C_acc_level_3 0
Core_0_L2C_acc_level_4 0
Core_0_L2C_acc_level_5 0
Core_0_L2C_acc_level_6 0
Core_0_L2C_acc_level_7 0
Core_0_L2C_acc_level_8 0
Core_0_L2C_acc_level_9 0

Core_0_LLC_total_access 2140161
Core_0_LLC_total_hit 522456
Core_0_LLC_total_miss 1617705
Core_0_LLC_loads 356563
Core_0_LLC_load_hit 192929
Core_0_LLC_load_miss 163634
Core_0_LLC_RFOs 814418
Core_0_LLC_RFO_hit 66460
Core_0_LLC_RFO_miss 747958
Core_0_LLC_prefetches 0
Core_0_LLC_prefetch_hit 0
Core_0_LLC_prefetch_miss 0
Core_0_LLC_writebacks 969180
Core_0_LLC_writeback_hit 263067
Core_0_LLC_writeback_miss 706113
Core_0_LLC_prefetch_requested 0
Core_0_LLC_prefetch_dropped 0
Core_0_LLC_prefetch_issued 0
Core_0_LLC_prefetch_filled 0
Core_0_LLC_prefetch_useful 0
Core_0_LLC_prefetch_useless 0
Core_0_LLC_prefetch_late 0
Core_0_LLC_average_miss_latency 395.35285

Core_0_LLC_rq_access 1170981
Core_0_LLC_rq_forward 0
Core_0_LLC_rq_merged 0
Core_0_LLC_rq_to_cache 1170981
Core_0_LLC_rq_full 0

Core_0_LLC_wq_access 969180
Core_0_LLC_wq_forward 0
Core_0_LLC_wq_merged 0
Core_0_LLC_wq_to_cache 969180
Core_0_LLC_wq_full 0

Core_0_LLC_pq_access 0
Core_0_LLC_pq_forward 0
Core_0_LLC_pq_merged 0
Core_0_LLC_pq_to_cache 0
Core_0_LLC_pq_full 0

Core_0_LLC_acc_epochs 1389048
Core_0_LLC_acc_level_0 1389048
Core_0_LLC_acc_level_1 0
Core_0_LLC_acc_level_2 0
Core_0_LLC_acc_level_3 0
Core_0_LLC_acc_level_4 0
Core_0_LLC_acc_level_5 0
Core_0_LLC_acc_level_6 0
Core_0_LLC_acc_level_7 0
Core_0_LLC_acc_level_8 0
Core_0_LLC_acc_level_9 0

Core_0_major_page_fault 0
Core_0_minor_page_fault 6504

Channel_0_RQ_row_buffer_hit 222955
Channel_0_RQ_row_buffer_miss 688631
Channel_0_WQ_row_buffer_hit 217779
Channel_0_WQ_row_buffer_miss 637846
Channel_0_WQ_full 38991
Channel_0_dbus_congested 1390850

avg_congested_cycle 11

DRAM_bw_pochs 5556192
DRAM_bw_level_0 5420757
DRAM_bw_level_1 82355
DRAM_bw_level_2 42290
DRAM_bw_level_3 10790
