*************************************************
   ChampSim Multicore Out-of-Order Simulator
   Last compiled: Dec 11 2024 17:59:53
*************************************************
parsing config file: /home/functionmain/桌面/Pythia/config/mlop.ini

trace_0 /home/functionmain/桌面/Pythia/traces/445.gobmk-30B.champsimtrace.xz
adding L2C_PREFETCHER: MLOP
Initialize SHIP state
warmup_instructions 100000000
simulation_instructions 500000000
champsim_seed 165
measure_ipc 0
measure_ipc_epoch 1000
measure_dram_bw 1
measure_dram_bw_epoch 256
measure_cache_acc 1
measure_cache_acc_epoch 1024
l1d_perfect 0
l2c_perfect 0
llc_perfect 0
l1d_semi_perfect 0
l2c_semi_perfect 0
llc_semi_perfect 0
semi_perfect_cache_page_buffer_size 64

num_cpus 1
cpu_freq 4000
dram_io_freq 4800
page_size 4096
block_size 64
max_read_per_cycle 8
max_fill_per_cycle 1
dram_channels 1
log2_dram_channels 0
dram_ranks 1
dram_banks 8
dram_rows 65536
dram_columns 128
dram_row_size 8
dram_size 4096
dram_pages 1048576

fetch_width 6
decode_width 6
exec_width 4
lq_width 2
sq_width 2
retire_width 4
scheduler_size 128
branch_mispredict_penalty 20
rob_size 256
lq_size 72
sq_size 56
num_instr_destinations_sparc 4
num_instr_destinations 2
num_instr_sources 4

itlb_set 16
itlb_way 8
itlb_rq_size 16
itlb_wq_size 16
itlb_pq_size 0
itlb_mshr_size 8
itlb_latency 1

dtlb_set 16
dtlb_way 4
dtlb_rq_size 16
dtlb_wq_size 16
dtlb_pq_size 0
dtlb_mshr_size 8
dtlb_latency 1

stlb_set 128
stlb_way 12
stlb_rq_size 32
stlb_wq_size 32
stlb_pq_size 0
stlb_mshr_size 16
stlb_latency 8

l1i_size 32
l1i_set 64
l1i_way 8
l1i_rq_size 64
l1i_wq_size 64
l1i_pq_size 8
l1i_mshr_size 8
l1i_latency 1

l1d_size 32
l1d_set 64
l1d_way 8
l1d_rq_size 64
l1d_wq_size 64
l1d_pq_size 8
l1d_mshr_size 16
l1d_latency 4

l2c_size 256
l2c_set 512
l2c_way 8
l2c_rq_size 32
l2c_wq_size 32
l2c_pq_size 32
l2c_mshr_size 32
l2c_latency 10

llc_size 2048
llc_set 2048
llc_way 16
llc_rq_size 32
llc_wq_size 32
llc_pq_size 32
llc_mshr_size 64
llc_latency 20

dram_channel_width 8
dram_wq_size 64
dram_rq_size 64
tRP 15
tRCD 15
tCAS 12.5
dram_dbus_turn_around_time 30
dram_write_high_wm 56
dram_write_low_wm 48
min_dram_writes_per_switch 16
dram_mtps 4800
dram_dbus_return_time 6

mlop_pref_degree 16
mlop_num_updates 500
mlop_l1d_thresh 2
mlop_l2c_thresh 0.75
mlop_llc_thresh 0.3
mlop_debug_level 0
mlop_blocks_in_cache 4096
mlop_blocks_in_zone 64
mlop_amt_size 2048
mlop_PF_DEGREE 16
mlop_NUM_UPDATES 500
mlop_L1D_THRESH 1000
mlop_L2C_THRESH 375
mlop_LLC_THRESH 150
mlop_ORIGIN 63
mlop_MAX_OFFSET 63
mlop_MIN_OFFSET -63
mlop_ORIGIN 63
mlop_NUM_OFFSETS 127


Heartbeat CPU  0 instructions:    1000000 cycles:     861996 heartbeat IPC: 1.16010 cumulative IPC: 1.16010 (Simulation time: 0 hr 0 min 1 sec) 
Heartbeat CPU  0 instructions:    2000000 cycles:    1864456 heartbeat IPC: 0.99755 cumulative IPC: 1.07270 (Simulation time: 0 hr 0 min 2 sec) 
Heartbeat CPU  0 instructions:    3000001 cycles:    2990060 heartbeat IPC: 0.88841 cumulative IPC: 1.00332 (Simulation time: 0 hr 0 min 3 sec) 
Heartbeat CPU  0 instructions:    4000000 cycles:    4090835 heartbeat IPC: 0.90845 cumulative IPC: 0.97780 (Simulation time: 0 hr 0 min 4 sec) 
Heartbeat CPU  0 instructions:    5000001 cycles:    5173126 heartbeat IPC: 0.92397 cumulative IPC: 0.96653 (Simulation time: 0 hr 0 min 5 sec) 
Heartbeat CPU  0 instructions:    6000000 cycles:    6295937 heartbeat IPC: 0.89062 cumulative IPC: 0.95300 (Simulation time: 0 hr 0 min 7 sec) 
Heartbeat CPU  0 instructions:    7000001 cycles:    7363127 heartbeat IPC: 0.93704 cumulative IPC: 0.95068 (Simulation time: 0 hr 0 min 8 sec) 
Heartbeat CPU  0 instructions:    8000000 cycles:    8565891 heartbeat IPC: 0.83142 cumulative IPC: 0.93394 (Simulation time: 0 hr 0 min 9 sec) 
Heartbeat CPU  0 instructions:    9000000 cycles:    9685312 heartbeat IPC: 0.89332 cumulative IPC: 0.92924 (Simulation time: 0 hr 0 min 10 sec) 
Heartbeat CPU  0 instructions:   10000003 cycles:   10815081 heartbeat IPC: 0.88514 cumulative IPC: 0.92464 (Simulation time: 0 hr 0 min 11 sec) 
Heartbeat CPU  0 instructions:   11000000 cycles:   11872823 heartbeat IPC: 0.94541 cumulative IPC: 0.92649 (Simulation time: 0 hr 0 min 12 sec) 
Heartbeat CPU  0 instructions:   12000000 cycles:   13017026 heartbeat IPC: 0.87397 cumulative IPC: 0.92187 (Simulation time: 0 hr 0 min 14 sec) 
Heartbeat CPU  0 instructions:   13000001 cycles:   14156478 heartbeat IPC: 0.87762 cumulative IPC: 0.91831 (Simulation time: 0 hr 0 min 15 sec) 
Heartbeat CPU  0 instructions:   14000000 cycles:   15083181 heartbeat IPC: 1.07909 cumulative IPC: 0.92819 (Simulation time: 0 hr 0 min 16 sec) 
Heartbeat CPU  0 instructions:   15000001 cycles:   16047176 heartbeat IPC: 1.03735 cumulative IPC: 0.93474 (Simulation time: 0 hr 0 min 17 sec) 
Heartbeat CPU  0 instructions:   16000000 cycles:   17176191 heartbeat IPC: 0.88573 cumulative IPC: 0.93152 (Simulation time: 0 hr 0 min 18 sec) 
Heartbeat CPU  0 instructions:   17000000 cycles:   18271722 heartbeat IPC: 0.91280 cumulative IPC: 0.93040 (Simulation time: 0 hr 0 min 19 sec) 
Heartbeat CPU  0 instructions:   18000003 cycles:   19388166 heartbeat IPC: 0.89570 cumulative IPC: 0.92840 (Simulation time: 0 hr 0 min 20 sec) 
Heartbeat CPU  0 instructions:   19000001 cycles:   20469336 heartbeat IPC: 0.92492 cumulative IPC: 0.92822 (Simulation time: 0 hr 0 min 21 sec) 
Heartbeat CPU  0 instructions:   20000000 cycles:   21561150 heartbeat IPC: 0.91591 cumulative IPC: 0.92759 (Simulation time: 0 hr 0 min 23 sec) 
Heartbeat CPU  0 instructions:   21000000 cycles:   22753600 heartbeat IPC: 0.83861 cumulative IPC: 0.92293 (Simulation time: 0 hr 0 min 24 sec) 
Heartbeat CPU  0 instructions:   22000003 cycles:   23880968 heartbeat IPC: 0.88702 cumulative IPC: 0.92124 (Simulation time: 0 hr 0 min 25 sec) 
Heartbeat CPU  0 instructions:   23000001 cycles:   24931075 heartbeat IPC: 0.95228 cumulative IPC: 0.92254 (Simulation time: 0 hr 0 min 26 sec) 
Heartbeat CPU  0 instructions:   24000000 cycles:   26047895 heartbeat IPC: 0.89540 cumulative IPC: 0.92138 (Simulation time: 0 hr 0 min 27 sec) 
Heartbeat CPU  0 instructions:   25000000 cycles:   26927137 heartbeat IPC: 1.13734 cumulative IPC: 0.92843 (Simulation time: 0 hr 0 min 28 sec) 
Heartbeat CPU  0 instructions:   26000000 cycles:   27897366 heartbeat IPC: 1.03068 cumulative IPC: 0.93199 (Simulation time: 0 hr 0 min 29 sec) 
Heartbeat CPU  0 instructions:   27000002 cycles:   29000037 heartbeat IPC: 0.90689 cumulative IPC: 0.93103 (Simulation time: 0 hr 0 min 30 sec) 
Heartbeat CPU  0 instructions:   28000000 cycles:   30120743 heartbeat IPC: 0.89229 cumulative IPC: 0.92959 (Simulation time: 0 hr 0 min 32 sec) 
Heartbeat CPU  0 instructions:   29000003 cycles:   31186778 heartbeat IPC: 0.93806 cumulative IPC: 0.92988 (Simulation time: 0 hr 0 min 33 sec) 
Heartbeat CPU  0 instructions:   30000002 cycles:   32279290 heartbeat IPC: 0.91532 cumulative IPC: 0.92939 (Simulation time: 0 hr 0 min 34 sec) 
Heartbeat CPU  0 instructions:   31000003 cycles:   33381677 heartbeat IPC: 0.90712 cumulative IPC: 0.92865 (Simulation time: 0 hr 0 min 35 sec) 
Heartbeat CPU  0 instructions:   32000000 cycles:   34481358 heartbeat IPC: 0.90935 cumulative IPC: 0.92804 (Simulation time: 0 hr 0 min 36 sec) 
Heartbeat CPU  0 instructions:   33000001 cycles:   35468609 heartbeat IPC: 1.01291 cumulative IPC: 0.93040 (Simulation time: 0 hr 0 min 37 sec) 
Heartbeat CPU  0 instructions:   34000001 cycles:   36606510 heartbeat IPC: 0.87881 cumulative IPC: 0.92880 (Simulation time: 0 hr 0 min 39 sec) 
Heartbeat CPU  0 instructions:   35000003 cycles:   37678854 heartbeat IPC: 0.93254 cumulative IPC: 0.92890 (Simulation time: 0 hr 0 min 40 sec) 
Heartbeat CPU  0 instructions:   36000000 cycles:   38870456 heartbeat IPC: 0.83920 cumulative IPC: 0.92615 (Simulation time: 0 hr 0 min 41 sec) 
Heartbeat CPU  0 instructions:   37000002 cycles:   39986474 heartbeat IPC: 0.89604 cumulative IPC: 0.92531 (Simulation time: 0 hr 0 min 42 sec) 
Heartbeat CPU  0 instructions:   38000000 cycles:   41036463 heartbeat IPC: 0.95239 cumulative IPC: 0.92601 (Simulation time: 0 hr 0 min 43 sec) 
Heartbeat CPU  0 instructions:   39000001 cycles:   41930006 heartbeat IPC: 1.11914 cumulative IPC: 0.93012 (Simulation time: 0 hr 0 min 44 sec) 
Heartbeat CPU  0 instructions:   40000000 cycles:   42887896 heartbeat IPC: 1.04396 cumulative IPC: 0.93266 (Simulation time: 0 hr 0 min 45 sec) 
Heartbeat CPU  0 instructions:   41000000 cycles:   43989247 heartbeat IPC: 0.90798 cumulative IPC: 0.93205 (Simulation time: 0 hr 0 min 46 sec) 
Heartbeat CPU  0 instructions:   42000000 cycles:   45114307 heartbeat IPC: 0.88884 cumulative IPC: 0.93097 (Simulation time: 0 hr 0 min 48 sec) 
Heartbeat CPU  0 instructions:   43000003 cycles:   46181918 heartbeat IPC: 0.93667 cumulative IPC: 0.93110 (Simulation time: 0 hr 0 min 49 sec) 
Heartbeat CPU  0 instructions:   44000000 cycles:   47301854 heartbeat IPC: 0.89291 cumulative IPC: 0.93020 (Simulation time: 0 hr 0 min 50 sec) 
Heartbeat CPU  0 instructions:   45000001 cycles:   48335599 heartbeat IPC: 0.96736 cumulative IPC: 0.93099 (Simulation time: 0 hr 0 min 51 sec) 
Heartbeat CPU  0 instructions:   46000000 cycles:   49422036 heartbeat IPC: 0.92044 cumulative IPC: 0.93076 (Simulation time: 0 hr 0 min 52 sec) 
Heartbeat CPU  0 instructions:   47000003 cycles:   50530342 heartbeat IPC: 0.90228 cumulative IPC: 0.93013 (Simulation time: 0 hr 0 min 53 sec) 
Heartbeat CPU  0 instructions:   48000000 cycles:   51499570 heartbeat IPC: 1.03175 cumulative IPC: 0.93205 (Simulation time: 0 hr 0 min 55 sec) 
Heartbeat CPU  0 instructions:   49000000 cycles:   52614124 heartbeat IPC: 0.89722 cumulative IPC: 0.93131 (Simulation time: 0 hr 0 min 56 sec) 
Heartbeat CPU  0 instructions:   50000000 cycles:   53698187 heartbeat IPC: 0.92246 cumulative IPC: 0.93113 (Simulation time: 0 hr 0 min 57 sec) 
Heartbeat CPU  0 instructions:   51000001 cycles:   54765556 heartbeat IPC: 0.93688 cumulative IPC: 0.93124 (Simulation time: 0 hr 0 min 58 sec) 
Heartbeat CPU  0 instructions:   52000000 cycles:   55895261 heartbeat IPC: 0.88519 cumulative IPC: 0.93031 (Simulation time: 0 hr 0 min 59 sec) 
Heartbeat CPU  0 instructions:   53000000 cycles:   57001837 heartbeat IPC: 0.90369 cumulative IPC: 0.92979 (Simulation time: 0 hr 1 min 1 sec) 
Heartbeat CPU  0 instructions:   54000001 cycles:   58198498 heartbeat IPC: 0.83566 cumulative IPC: 0.92786 (Simulation time: 0 hr 1 min 2 sec) 
Heartbeat CPU  0 instructions:   55000002 cycles:   59318191 heartbeat IPC: 0.89310 cumulative IPC: 0.92720 (Simulation time: 0 hr 1 min 3 sec) 
Heartbeat CPU  0 instructions:   56000000 cycles:   60384031 heartbeat IPC: 0.93823 cumulative IPC: 0.92740 (Simulation time: 0 hr 1 min 4 sec) 
Heartbeat CPU  0 instructions:   57000000 cycles:   61472092 heartbeat IPC: 0.91907 cumulative IPC: 0.92725 (Simulation time: 0 hr 1 min 5 sec) 
Heartbeat CPU  0 instructions:   58000001 cycles:   62561381 heartbeat IPC: 0.91803 cumulative IPC: 0.92709 (Simulation time: 0 hr 1 min 6 sec) 
Heartbeat CPU  0 instructions:   59000000 cycles:   63436120 heartbeat IPC: 1.14320 cumulative IPC: 0.93007 (Simulation time: 0 hr 1 min 7 sec) 
Heartbeat CPU  0 instructions:   60000000 cycles:   64555125 heartbeat IPC: 0.89365 cumulative IPC: 0.92944 (Simulation time: 0 hr 1 min 8 sec) 
Heartbeat CPU  0 instructions:   61000000 cycles:   65651381 heartbeat IPC: 0.91220 cumulative IPC: 0.92915 (Simulation time: 0 hr 1 min 10 sec) 
Heartbeat CPU  0 instructions:   62000000 cycles:   66729692 heartbeat IPC: 0.92738 cumulative IPC: 0.92912 (Simulation time: 0 hr 1 min 11 sec) 
Heartbeat CPU  0 instructions:   63000001 cycles:   67747079 heartbeat IPC: 0.98291 cumulative IPC: 0.92993 (Simulation time: 0 hr 1 min 12 sec) 
Heartbeat CPU  0 instructions:   64000000 cycles:   68869586 heartbeat IPC: 0.89086 cumulative IPC: 0.92929 (Simulation time: 0 hr 1 min 13 sec) 
Heartbeat CPU  0 instructions:   65000000 cycles:   69945081 heartbeat IPC: 0.92980 cumulative IPC: 0.92930 (Simulation time: 0 hr 1 min 14 sec) 
Heartbeat CPU  0 instructions:   66000000 cycles:   71001998 heartbeat IPC: 0.94615 cumulative IPC: 0.92955 (Simulation time: 0 hr 1 min 16 sec) 
Heartbeat CPU  0 instructions:   67000000 cycles:   72115558 heartbeat IPC: 0.89802 cumulative IPC: 0.92906 (Simulation time: 0 hr 1 min 17 sec) 
Heartbeat CPU  0 instructions:   68000000 cycles:   73203963 heartbeat IPC: 0.91878 cumulative IPC: 0.92891 (Simulation time: 0 hr 1 min 18 sec) 
Heartbeat CPU  0 instructions:   69000001 cycles:   74312642 heartbeat IPC: 0.90198 cumulative IPC: 0.92851 (Simulation time: 0 hr 1 min 19 sec) 
Heartbeat CPU  0 instructions:   70000000 cycles:   75285576 heartbeat IPC: 1.02782 cumulative IPC: 0.92979 (Simulation time: 0 hr 1 min 20 sec) 
Heartbeat CPU  0 instructions:   71000000 cycles:   76200620 heartbeat IPC: 1.09284 cumulative IPC: 0.93175 (Simulation time: 0 hr 1 min 21 sec) 
Heartbeat CPU  0 instructions:   72000000 cycles:   77300168 heartbeat IPC: 0.90946 cumulative IPC: 0.93143 (Simulation time: 0 hr 1 min 23 sec) 
Heartbeat CPU  0 instructions:   73000001 cycles:   78362283 heartbeat IPC: 0.94152 cumulative IPC: 0.93157 (Simulation time: 0 hr 1 min 24 sec) 
Heartbeat CPU  0 instructions:   74000000 cycles:   79429188 heartbeat IPC: 0.93729 cumulative IPC: 0.93165 (Simulation time: 0 hr 1 min 25 sec) 
Heartbeat CPU  0 instructions:   75000001 cycles:   80371726 heartbeat IPC: 1.06097 cumulative IPC: 0.93316 (Simulation time: 0 hr 1 min 26 sec) 
Heartbeat CPU  0 instructions:   76000000 cycles:   81359755 heartbeat IPC: 1.01212 cumulative IPC: 0.93412 (Simulation time: 0 hr 1 min 27 sec) 
Heartbeat CPU  0 instructions:   77000002 cycles:   82401438 heartbeat IPC: 0.95999 cumulative IPC: 0.93445 (Simulation time: 0 hr 1 min 28 sec) 
Heartbeat CPU  0 instructions:   78000000 cycles:   83352713 heartbeat IPC: 1.05122 cumulative IPC: 0.93578 (Simulation time: 0 hr 1 min 30 sec) 
Heartbeat CPU  0 instructions:   79000003 cycles:   84383389 heartbeat IPC: 0.97024 cumulative IPC: 0.93620 (Simulation time: 0 hr 1 min 31 sec) 
Heartbeat CPU  0 instructions:   80000000 cycles:   85449796 heartbeat IPC: 0.93773 cumulative IPC: 0.93622 (Simulation time: 0 hr 1 min 32 sec) 
Heartbeat CPU  0 instructions:   81000003 cycles:   86538270 heartbeat IPC: 0.91872 cumulative IPC: 0.93600 (Simulation time: 0 hr 1 min 33 sec) 
Heartbeat CPU  0 instructions:   82000000 cycles:   87613259 heartbeat IPC: 0.93024 cumulative IPC: 0.93593 (Simulation time: 0 hr 1 min 34 sec) 
Heartbeat CPU  0 instructions:   83000001 cycles:   88712551 heartbeat IPC: 0.90968 cumulative IPC: 0.93561 (Simulation time: 0 hr 1 min 36 sec) 
Heartbeat CPU  0 instructions:   84000000 cycles:   89751620 heartbeat IPC: 0.96240 cumulative IPC: 0.93592 (Simulation time: 0 hr 1 min 37 sec) 
Heartbeat CPU  0 instructions:   85000000 cycles:   90751325 heartbeat IPC: 1.00030 cumulative IPC: 0.93663 (Simulation time: 0 hr 1 min 38 sec) 
Heartbeat CPU  0 instructions:   86000000 cycles:   91837456 heartbeat IPC: 0.92070 cumulative IPC: 0.93644 (Simulation time: 0 hr 1 min 39 sec) 
Heartbeat CPU  0 instructions:   87000002 cycles:   92924273 heartbeat IPC: 0.92012 cumulative IPC: 0.93625 (Simulation time: 0 hr 1 min 40 sec) 
Heartbeat CPU  0 instructions:   88000000 cycles:   93994466 heartbeat IPC: 0.93441 cumulative IPC: 0.93623 (Simulation time: 0 hr 1 min 42 sec) 
Heartbeat CPU  0 instructions:   89000002 cycles:   95093832 heartbeat IPC: 0.90962 cumulative IPC: 0.93592 (Simulation time: 0 hr 1 min 43 sec) 
Heartbeat CPU  0 instructions:   90000002 cycles:   96181232 heartbeat IPC: 0.91962 cumulative IPC: 0.93573 (Simulation time: 0 hr 1 min 44 sec) 
Heartbeat CPU  0 instructions:   91000001 cycles:   97247718 heartbeat IPC: 0.93766 cumulative IPC: 0.93575 (Simulation time: 0 hr 1 min 45 sec) 
Heartbeat CPU  0 instructions:   92000000 cycles:   98366506 heartbeat IPC: 0.89382 cumulative IPC: 0.93528 (Simulation time: 0 hr 1 min 46 sec) 
Heartbeat CPU  0 instructions:   93000000 cycles:   99405870 heartbeat IPC: 0.96213 cumulative IPC: 0.93556 (Simulation time: 0 hr 1 min 47 sec) 
Heartbeat CPU  0 instructions:   94000001 cycles:  100524125 heartbeat IPC: 0.89425 cumulative IPC: 0.93510 (Simulation time: 0 hr 1 min 49 sec) 
Heartbeat CPU  0 instructions:   95000001 cycles:  101616167 heartbeat IPC: 0.91572 cumulative IPC: 0.93489 (Simulation time: 0 hr 1 min 50 sec) 
Heartbeat CPU  0 instructions:   96000000 cycles:  102705932 heartbeat IPC: 0.91763 cumulative IPC: 0.93471 (Simulation time: 0 hr 1 min 51 sec) 
Heartbeat CPU  0 instructions:   97000001 cycles:  103834227 heartbeat IPC: 0.88629 cumulative IPC: 0.93418 (Simulation time: 0 hr 1 min 52 sec) 
Heartbeat CPU  0 instructions:   98000000 cycles:  104932969 heartbeat IPC: 0.91013 cumulative IPC: 0.93393 (Simulation time: 0 hr 1 min 53 sec) 
Heartbeat CPU  0 instructions:   99000003 cycles:  106004565 heartbeat IPC: 0.93319 cumulative IPC: 0.93392 (Simulation time: 0 hr 1 min 54 sec) 
Heartbeat CPU  0 instructions:  100000000 cycles:  107090129 heartbeat IPC: 0.92118 cumulative IPC: 0.93379 (Simulation time: 0 hr 1 min 55 sec) 

Warmup complete CPU  0 instructions:  100000001 cycles:  107090131 (Simulation time: 0 hr 1 min 55 sec) 

Heartbeat CPU  0 instructions:  101000000 cycles:  109764670 heartbeat IPC: 0.37390 cumulative IPC: 0.37390 (Simulation time: 0 hr 1 min 57 sec) 
Heartbeat CPU  0 instructions:  102000000 cycles:  112415312 heartbeat IPC: 0.37727 cumulative IPC: 0.37557 (Simulation time: 0 hr 1 min 59 sec) 
Heartbeat CPU  0 instructions:  103000000 cycles:  115071086 heartbeat IPC: 0.37654 cumulative IPC: 0.37589 (Simulation time: 0 hr 2 min 1 sec) 
Heartbeat CPU  0 instructions:  104000000 cycles:  117635224 heartbeat IPC: 0.38999 cumulative IPC: 0.37932 (Simulation time: 0 hr 2 min 3 sec) 
Heartbeat CPU  0 instructions:  105000003 cycles:  120368750 heartbeat IPC: 0.36583 cumulative IPC: 0.37655 (Simulation time: 0 hr 2 min 5 sec) 
Heartbeat CPU  0 instructions:  106000001 cycles:  123063399 heartbeat IPC: 0.37111 cumulative IPC: 0.37563 (Simulation time: 0 hr 2 min 7 sec) 
Heartbeat CPU  0 instructions:  107000003 cycles:  125760395 heartbeat IPC: 0.37078 cumulative IPC: 0.37493 (Simulation time: 0 hr 2 min 8 sec) 
Heartbeat CPU  0 instructions:  108000000 cycles:  128583294 heartbeat IPC: 0.35424 cumulative IPC: 0.37221 (Simulation time: 0 hr 2 min 10 sec) 
Heartbeat CPU  0 instructions:  109000000 cycles:  131377198 heartbeat IPC: 0.35792 cumulative IPC: 0.37057 (Simulation time: 0 hr 2 min 12 sec) 
Heartbeat CPU  0 instructions:  110000002 cycles:  134053603 heartbeat IPC: 0.37364 cumulative IPC: 0.37087 (Simulation time: 0 hr 2 min 14 sec) 
Heartbeat CPU  0 instructions:  111000002 cycles:  136631153 heartbeat IPC: 0.38797 cumulative IPC: 0.37236 (Simulation time: 0 hr 2 min 16 sec) 
Heartbeat CPU  0 instructions:  112000000 cycles:  139384708 heartbeat IPC: 0.36317 cumulative IPC: 0.37158 (Simulation time: 0 hr 2 min 18 sec) 
Heartbeat CPU  0 instructions:  113000001 cycles:  142244032 heartbeat IPC: 0.34973 cumulative IPC: 0.36980 (Simulation time: 0 hr 2 min 20 sec) 
Heartbeat CPU  0 instructions:  114000000 cycles:  145068991 heartbeat IPC: 0.35399 cumulative IPC: 0.36863 (Simulation time: 0 hr 2 min 21 sec) 
Heartbeat CPU  0 instructions:  115000000 cycles:  147779668 heartbeat IPC: 0.36891 cumulative IPC: 0.36865 (Simulation time: 0 hr 2 min 23 sec) 
Heartbeat CPU  0 instructions:  116000000 cycles:  150545092 heartbeat IPC: 0.36161 cumulative IPC: 0.36820 (Simulation time: 0 hr 2 min 25 sec) 
Heartbeat CPU  0 instructions:  117000002 cycles:  153271949 heartbeat IPC: 0.36672 cumulative IPC: 0.36811 (Simulation time: 0 hr 2 min 27 sec) 
Heartbeat CPU  0 instructions:  118000000 cycles:  156018284 heartbeat IPC: 0.36412 cumulative IPC: 0.36789 (Simulation time: 0 hr 2 min 29 sec) 
Heartbeat CPU  0 instructions:  119000000 cycles:  158773577 heartbeat IPC: 0.36294 cumulative IPC: 0.36762 (Simulation time: 0 hr 2 min 31 sec) 
Heartbeat CPU  0 instructions:  120000000 cycles:  161605177 heartbeat IPC: 0.35316 cumulative IPC: 0.36687 (Simulation time: 0 hr 2 min 33 sec) 
Heartbeat CPU  0 instructions:  121000000 cycles:  164314998 heartbeat IPC: 0.36903 cumulative IPC: 0.36697 (Simulation time: 0 hr 2 min 35 sec) 
Heartbeat CPU  0 instructions:  122000001 cycles:  167059271 heartbeat IPC: 0.36440 cumulative IPC: 0.36686 (Simulation time: 0 hr 2 min 36 sec) 
Heartbeat CPU  0 instructions:  123000001 cycles:  169748378 heartbeat IPC: 0.37187 cumulative IPC: 0.36707 (Simulation time: 0 hr 2 min 38 sec) 
Heartbeat CPU  0 instructions:  124000000 cycles:  172387516 heartbeat IPC: 0.37891 cumulative IPC: 0.36755 (Simulation time: 0 hr 2 min 40 sec) 
Heartbeat CPU  0 instructions:  125000003 cycles:  175017035 heartbeat IPC: 0.38030 cumulative IPC: 0.36804 (Simulation time: 0 hr 2 min 42 sec) 
Heartbeat CPU  0 instructions:  126000000 cycles:  177672027 heartbeat IPC: 0.37665 cumulative IPC: 0.36837 (Simulation time: 0 hr 2 min 44 sec) 
Heartbeat CPU  0 instructions:  127000001 cycles:  180536237 heartbeat IPC: 0.34914 cumulative IPC: 0.36762 (Simulation time: 0 hr 2 min 46 sec) 
Heartbeat CPU  0 instructions:  128000000 cycles:  183243612 heartbeat IPC: 0.36936 cumulative IPC: 0.36768 (Simulation time: 0 hr 2 min 47 sec) 
Heartbeat CPU  0 instructions:  129000001 cycles:  186089003 heartbeat IPC: 0.35145 cumulative IPC: 0.36709 (Simulation time: 0 hr 2 min 49 sec) 
Heartbeat CPU  0 instructions:  130000000 cycles:  188939136 heartbeat IPC: 0.35086 cumulative IPC: 0.36653 (Simulation time: 0 hr 2 min 51 sec) 
Heartbeat CPU  0 instructions:  131000000 cycles:  191680411 heartbeat IPC: 0.36479 cumulative IPC: 0.36647 (Simulation time: 0 hr 2 min 53 sec) 
Heartbeat CPU  0 instructions:  132000000 cycles:  194430945 heartbeat IPC: 0.36357 cumulative IPC: 0.36638 (Simulation time: 0 hr 2 min 55 sec) 
Heartbeat CPU  0 instructions:  133000001 cycles:  197134725 heartbeat IPC: 0.36985 cumulative IPC: 0.36649 (Simulation time: 0 hr 2 min 57 sec) 
Heartbeat CPU  0 instructions:  134000000 cycles:  199885950 heartbeat IPC: 0.36347 cumulative IPC: 0.36640 (Simulation time: 0 hr 2 min 59 sec) 
Heartbeat CPU  0 instructions:  135000000 cycles:  202667674 heartbeat IPC: 0.35949 cumulative IPC: 0.36619 (Simulation time: 0 hr 3 min 1 sec) 
Heartbeat CPU  0 instructions:  136000000 cycles:  205441349 heartbeat IPC: 0.36053 cumulative IPC: 0.36604 (Simulation time: 0 hr 3 min 2 sec) 
Heartbeat CPU  0 instructions:  137000000 cycles:  208163324 heartbeat IPC: 0.36738 cumulative IPC: 0.36607 (Simulation time: 0 hr 3 min 4 sec) 
Heartbeat CPU  0 instructions:  138000000 cycles:  210759366 heartbeat IPC: 0.38520 cumulative IPC: 0.36655 (Simulation time: 0 hr 3 min 6 sec) 
Heartbeat CPU  0 instructions:  139000002 cycles:  213428170 heartbeat IPC: 0.37470 cumulative IPC: 0.36675 (Simulation time: 0 hr 3 min 8 sec) 
Heartbeat CPU  0 instructions:  140000000 cycles:  216170725 heartbeat IPC: 0.36462 cumulative IPC: 0.36670 (Simulation time: 0 hr 3 min 10 sec) 
Heartbeat CPU  0 instructions:  141000003 cycles:  218900744 heartbeat IPC: 0.36630 cumulative IPC: 0.36669 (Simulation time: 0 hr 3 min 12 sec) 
Heartbeat CPU  0 instructions:  142000000 cycles:  221567015 heartbeat IPC: 0.37505 cumulative IPC: 0.36689 (Simulation time: 0 hr 3 min 13 sec) 
Heartbeat CPU  0 instructions:  143000001 cycles:  224214682 heartbeat IPC: 0.37769 cumulative IPC: 0.36713 (Simulation time: 0 hr 3 min 15 sec) 
Heartbeat CPU  0 instructions:  144000000 cycles:  225711582 heartbeat IPC: 0.66805 cumulative IPC: 0.37093 (Simulation time: 0 hr 3 min 17 sec) 
Heartbeat CPU  0 instructions:  145000002 cycles:  226635054 heartbeat IPC: 1.08287 cumulative IPC: 0.37643 (Simulation time: 0 hr 3 min 19 sec) 
Heartbeat CPU  0 instructions:  146000000 cycles:  227388297 heartbeat IPC: 1.32759 cumulative IPC: 0.38238 (Simulation time: 0 hr 3 min 21 sec) 
Heartbeat CPU  0 instructions:  147000000 cycles:  228218133 heartbeat IPC: 1.20506 cumulative IPC: 0.38802 (Simulation time: 0 hr 3 min 23 sec) 
Heartbeat CPU  0 instructions:  148000000 cycles:  229112407 heartbeat IPC: 1.11823 cumulative IPC: 0.39337 (Simulation time: 0 hr 3 min 25 sec) 
Heartbeat CPU  0 instructions:  149000001 cycles:  230597233 heartbeat IPC: 0.67348 cumulative IPC: 0.39674 (Simulation time: 0 hr 3 min 27 sec) 
Heartbeat CPU  0 instructions:  150000000 cycles:  232152166 heartbeat IPC: 0.64311 cumulative IPC: 0.39980 (Simulation time: 0 hr 3 min 30 sec) 
Heartbeat CPU  0 instructions:  151000001 cycles:  233762485 heartbeat IPC: 0.62100 cumulative IPC: 0.40261 (Simulation time: 0 hr 3 min 32 sec) 
Heartbeat CPU  0 instructions:  152000000 cycles:  235702687 heartbeat IPC: 0.51541 cumulative IPC: 0.40432 (Simulation time: 0 hr 3 min 35 sec) 
Heartbeat CPU  0 instructions:  153000000 cycles:  238007492 heartbeat IPC: 0.43388 cumulative IPC: 0.40484 (Simulation time: 0 hr 3 min 38 sec) 
Heartbeat CPU  0 instructions:  154000003 cycles:  240395484 heartbeat IPC: 0.41876 cumulative IPC: 0.40509 (Simulation time: 0 hr 3 min 41 sec) 
Heartbeat CPU  0 instructions:  155000003 cycles:  241676531 heartbeat IPC: 0.78061 cumulative IPC: 0.40866 (Simulation time: 0 hr 3 min 43 sec) 
Heartbeat CPU  0 instructions:  156000000 cycles:  242522400 heartbeat IPC: 1.18221 cumulative IPC: 0.41349 (Simulation time: 0 hr 3 min 45 sec) 
Heartbeat CPU  0 instructions:  157000001 cycles:  243352243 heartbeat IPC: 1.20505 cumulative IPC: 0.41831 (Simulation time: 0 hr 3 min 47 sec) 
Heartbeat CPU  0 instructions:  158000002 cycles:  244223904 heartbeat IPC: 1.14724 cumulative IPC: 0.42294 (Simulation time: 0 hr 3 min 49 sec) 
Heartbeat CPU  0 instructions:  159000002 cycles:  245847395 heartbeat IPC: 0.61596 cumulative IPC: 0.42520 (Simulation time: 0 hr 3 min 52 sec) 
Heartbeat CPU  0 instructions:  160000000 cycles:  247448480 heartbeat IPC: 0.62458 cumulative IPC: 0.42748 (Simulation time: 0 hr 3 min 54 sec) 
Heartbeat CPU  0 instructions:  161000003 cycles:  249057759 heartbeat IPC: 0.62140 cumulative IPC: 0.42968 (Simulation time: 0 hr 3 min 57 sec) 
Heartbeat CPU  0 instructions:  162000000 cycles:  251221306 heartbeat IPC: 0.46220 cumulative IPC: 0.43016 (Simulation time: 0 hr 4 min 0 sec) 
Heartbeat CPU  0 instructions:  163000002 cycles:  253563605 heartbeat IPC: 0.42693 cumulative IPC: 0.43011 (Simulation time: 0 hr 4 min 3 sec) 
Heartbeat CPU  0 instructions:  164000000 cycles:  255967195 heartbeat IPC: 0.41604 cumulative IPC: 0.42988 (Simulation time: 0 hr 4 min 6 sec) 
Heartbeat CPU  0 instructions:  165000003 cycles:  258559621 heartbeat IPC: 0.38574 cumulative IPC: 0.42913 (Simulation time: 0 hr 4 min 7 sec) 
Heartbeat CPU  0 instructions:  166000000 cycles:  261394779 heartbeat IPC: 0.35271 cumulative IPC: 0.42773 (Simulation time: 0 hr 4 min 9 sec) 
Heartbeat CPU  0 instructions:  167000002 cycles:  264176620 heartbeat IPC: 0.35947 cumulative IPC: 0.42652 (Simulation time: 0 hr 4 min 11 sec) 
Heartbeat CPU  0 instructions:  168000000 cycles:  266953740 heartbeat IPC: 0.36008 cumulative IPC: 0.42536 (Simulation time: 0 hr 4 min 13 sec) 
Heartbeat CPU  0 instructions:  169000000 cycles:  269761760 heartbeat IPC: 0.35612 cumulative IPC: 0.42417 (Simulation time: 0 hr 4 min 15 sec) 
Heartbeat CPU  0 instructions:  170000003 cycles:  272545485 heartbeat IPC: 0.35923 cumulative IPC: 0.42307 (Simulation time: 0 hr 4 min 17 sec) 
Heartbeat CPU  0 instructions:  171000000 cycles:  275253583 heartbeat IPC: 0.36926 cumulative IPC: 0.42221 (Simulation time: 0 hr 4 min 19 sec) 
Heartbeat CPU  0 instructions:  172000000 cycles:  278030619 heartbeat IPC: 0.36010 cumulative IPC: 0.42120 (Simulation time: 0 hr 4 min 21 sec) 
Heartbeat CPU  0 instructions:  173000000 cycles:  280724441 heartbeat IPC: 0.37122 cumulative IPC: 0.42042 (Simulation time: 0 hr 4 min 22 sec) 
Heartbeat CPU  0 instructions:  174000000 cycles:  283508204 heartbeat IPC: 0.35923 cumulative IPC: 0.41946 (Simulation time: 0 hr 4 min 24 sec) 
Heartbeat CPU  0 instructions:  175000001 cycles:  286279245 heartbeat IPC: 0.36088 cumulative IPC: 0.41855 (Simulation time: 0 hr 4 min 26 sec) 
Heartbeat CPU  0 instructions:  176000000 cycles:  289063387 heartbeat IPC: 0.35918 cumulative IPC: 0.41764 (Simulation time: 0 hr 4 min 28 sec) 
Heartbeat CPU  0 instructions:  177000000 cycles:  291845710 heartbeat IPC: 0.35941 cumulative IPC: 0.41677 (Simulation time: 0 hr 4 min 30 sec) 
Heartbeat CPU  0 instructions:  178000001 cycles:  294568384 heartbeat IPC: 0.36729 cumulative IPC: 0.41605 (Simulation time: 0 hr 4 min 32 sec) 
Heartbeat CPU  0 instructions:  179000003 cycles:  297181315 heartbeat IPC: 0.38271 cumulative IPC: 0.41559 (Simulation time: 0 hr 4 min 34 sec) 
Heartbeat CPU  0 instructions:  180000000 cycles:  299927393 heartbeat IPC: 0.36415 cumulative IPC: 0.41486 (Simulation time: 0 hr 4 min 35 sec) 
Heartbeat CPU  0 instructions:  181000000 cycles:  302413553 heartbeat IPC: 0.40223 cumulative IPC: 0.41470 (Simulation time: 0 hr 4 min 37 sec) 
Heartbeat CPU  0 instructions:  182000000 cycles:  305097826 heartbeat IPC: 0.37254 cumulative IPC: 0.41413 (Simulation time: 0 hr 4 min 39 sec) 
Heartbeat CPU  0 instructions:  183000000 cycles:  307676205 heartbeat IPC: 0.38784 cumulative IPC: 0.41379 (Simulation time: 0 hr 4 min 41 sec) 
Heartbeat CPU  0 instructions:  184000000 cycles:  310153699 heartbeat IPC: 0.40363 cumulative IPC: 0.41366 (Simulation time: 0 hr 4 min 43 sec) 
Heartbeat CPU  0 instructions:  185000000 cycles:  312771791 heartbeat IPC: 0.38196 cumulative IPC: 0.41326 (Simulation time: 0 hr 4 min 45 sec) 
Heartbeat CPU  0 instructions:  186000000 cycles:  315476961 heartbeat IPC: 0.36966 cumulative IPC: 0.41269 (Simulation time: 0 hr 4 min 46 sec) 
Heartbeat CPU  0 instructions:  187000000 cycles:  318056665 heartbeat IPC: 0.38764 cumulative IPC: 0.41239 (Simulation time: 0 hr 4 min 48 sec) 
Heartbeat CPU  0 instructions:  188000000 cycles:  320443785 heartbeat IPC: 0.41891 cumulative IPC: 0.41246 (Simulation time: 0 hr 4 min 50 sec) 
Heartbeat CPU  0 instructions:  189000000 cycles:  323081656 heartbeat IPC: 0.37909 cumulative IPC: 0.41205 (Simulation time: 0 hr 4 min 52 sec) 
Heartbeat CPU  0 instructions:  190000000 cycles:  325640021 heartbeat IPC: 0.39087 cumulative IPC: 0.41181 (Simulation time: 0 hr 4 min 54 sec) 
Heartbeat CPU  0 instructions:  191000001 cycles:  328259670 heartbeat IPC: 0.38173 cumulative IPC: 0.41145 (Simulation time: 0 hr 4 min 56 sec) 
Heartbeat CPU  0 instructions:  192000000 cycles:  330851009 heartbeat IPC: 0.38590 cumulative IPC: 0.41115 (Simulation time: 0 hr 4 min 58 sec) 
Heartbeat CPU  0 instructions:  193000001 cycles:  333394498 heartbeat IPC: 0.39316 cumulative IPC: 0.41095 (Simulation time: 0 hr 4 min 59 sec) 
Heartbeat CPU  0 instructions:  194000000 cycles:  335438820 heartbeat IPC: 0.48916 cumulative IPC: 0.41165 (Simulation time: 0 hr 5 min 1 sec) 
Heartbeat CPU  0 instructions:  195000000 cycles:  338070418 heartbeat IPC: 0.38000 cumulative IPC: 0.41129 (Simulation time: 0 hr 5 min 3 sec) 
Heartbeat CPU  0 instructions:  196000000 cycles:  340690622 heartbeat IPC: 0.38165 cumulative IPC: 0.41096 (Simulation time: 0 hr 5 min 5 sec) 
Heartbeat CPU  0 instructions:  197000002 cycles:  343251010 heartbeat IPC: 0.39057 cumulative IPC: 0.41074 (Simulation time: 0 hr 5 min 6 sec) 
Heartbeat CPU  0 instructions:  198000000 cycles:  345773018 heartbeat IPC: 0.39651 cumulative IPC: 0.41059 (Simulation time: 0 hr 5 min 8 sec) 
Heartbeat CPU  0 instructions:  199000000 cycles:  348289629 heartbeat IPC: 0.39736 cumulative IPC: 0.41045 (Simulation time: 0 hr 5 min 10 sec) 
Heartbeat CPU  0 instructions:  200000000 cycles:  350862888 heartbeat IPC: 0.38861 cumulative IPC: 0.41022 (Simulation time: 0 hr 5 min 12 sec) 
Heartbeat CPU  0 instructions:  201000002 cycles:  353536853 heartbeat IPC: 0.37398 cumulative IPC: 0.40982 (Simulation time: 0 hr 5 min 14 sec) 
Heartbeat CPU  0 instructions:  202000001 cycles:  356241679 heartbeat IPC: 0.36971 cumulative IPC: 0.40939 (Simulation time: 0 hr 5 min 16 sec) 
Heartbeat CPU  0 instructions:  203000000 cycles:  358825194 heartbeat IPC: 0.38707 cumulative IPC: 0.40916 (Simulation time: 0 hr 5 min 18 sec) 
Heartbeat CPU  0 instructions:  204000000 cycles:  361355088 heartbeat IPC: 0.39527 cumulative IPC: 0.40902 (Simulation time: 0 hr 5 min 19 sec) 
Heartbeat CPU  0 instructions:  205000002 cycles:  363979420 heartbeat IPC: 0.38105 cumulative IPC: 0.40874 (Simulation time: 0 hr 5 min 21 sec) 
Heartbeat CPU  0 instructions:  206000001 cycles:  366509776 heartbeat IPC: 0.39520 cumulative IPC: 0.40860 (Simulation time: 0 hr 5 min 23 sec) 
Heartbeat CPU  0 instructions:  207000000 cycles:  369087680 heartbeat IPC: 0.38791 cumulative IPC: 0.40840 (Simulation time: 0 hr 5 min 25 sec) 
Heartbeat CPU  0 instructions:  208000000 cycles:  371901136 heartbeat IPC: 0.35543 cumulative IPC: 0.40784 (Simulation time: 0 hr 5 min 27 sec) 
Heartbeat CPU  0 instructions:  209000003 cycles:  374725390 heartbeat IPC: 0.35408 cumulative IPC: 0.40727 (Simulation time: 0 hr 5 min 29 sec) 
Heartbeat CPU  0 instructions:  210000000 cycles:  377326145 heartbeat IPC: 0.38450 cumulative IPC: 0.40705 (Simulation time: 0 hr 5 min 31 sec) 
Heartbeat CPU  0 instructions:  211000000 cycles:  380191009 heartbeat IPC: 0.34906 cumulative IPC: 0.40644 (Simulation time: 0 hr 5 min 32 sec) 
Heartbeat CPU  0 instructions:  212000000 cycles:  382888176 heartbeat IPC: 0.37076 cumulative IPC: 0.40609 (Simulation time: 0 hr 5 min 34 sec) 
Heartbeat CPU  0 instructions:  213000002 cycles:  385630052 heartbeat IPC: 0.36471 cumulative IPC: 0.40569 (Simulation time: 0 hr 5 min 36 sec) 
Heartbeat CPU  0 instructions:  214000000 cycles:  388434972 heartbeat IPC: 0.35652 cumulative IPC: 0.40520 (Simulation time: 0 hr 5 min 38 sec) 
Heartbeat CPU  0 instructions:  215000001 cycles:  391224633 heartbeat IPC: 0.35847 cumulative IPC: 0.40474 (Simulation time: 0 hr 5 min 40 sec) 
Heartbeat CPU  0 instructions:  216000000 cycles:  393991962 heartbeat IPC: 0.36136 cumulative IPC: 0.40432 (Simulation time: 0 hr 5 min 42 sec) 
Heartbeat CPU  0 instructions:  217000000 cycles:  396769089 heartbeat IPC: 0.36008 cumulative IPC: 0.40390 (Simulation time: 0 hr 5 min 44 sec) 
Heartbeat CPU  0 instructions:  218000002 cycles:  399552934 heartbeat IPC: 0.35922 cumulative IPC: 0.40347 (Simulation time: 0 hr 5 min 45 sec) 
Heartbeat CPU  0 instructions:  219000000 cycles:  402309777 heartbeat IPC: 0.36273 cumulative IPC: 0.40309 (Simulation time: 0 hr 5 min 47 sec) 
Heartbeat CPU  0 instructions:  220000000 cycles:  405051057 heartbeat IPC: 0.36479 cumulative IPC: 0.40274 (Simulation time: 0 hr 5 min 49 sec) 
Heartbeat CPU  0 instructions:  221000003 cycles:  407854383 heartbeat IPC: 0.35672 cumulative IPC: 0.40231 (Simulation time: 0 hr 5 min 51 sec) 
Heartbeat CPU  0 instructions:  222000003 cycles:  410632372 heartbeat IPC: 0.35997 cumulative IPC: 0.40192 (Simulation time: 0 hr 5 min 53 sec) 
Heartbeat CPU  0 instructions:  223000000 cycles:  413349748 heartbeat IPC: 0.36800 cumulative IPC: 0.40162 (Simulation time: 0 hr 5 min 55 sec) 
Heartbeat CPU  0 instructions:  224000000 cycles:  416057223 heartbeat IPC: 0.36935 cumulative IPC: 0.40134 (Simulation time: 0 hr 5 min 57 sec) 
Heartbeat CPU  0 instructions:  225000000 cycles:  418689343 heartbeat IPC: 0.37992 cumulative IPC: 0.40116 (Simulation time: 0 hr 5 min 59 sec) 
Heartbeat CPU  0 instructions:  226000002 cycles:  421422460 heartbeat IPC: 0.36588 cumulative IPC: 0.40085 (Simulation time: 0 hr 6 min 0 sec) 
Heartbeat CPU  0 instructions:  227000000 cycles:  424158066 heartbeat IPC: 0.36555 cumulative IPC: 0.40055 (Simulation time: 0 hr 6 min 2 sec) 
Heartbeat CPU  0 instructions:  228000000 cycles:  426847487 heartbeat IPC: 0.37183 cumulative IPC: 0.40030 (Simulation time: 0 hr 6 min 4 sec) 
Heartbeat CPU  0 instructions:  229000003 cycles:  429649880 heartbeat IPC: 0.35684 cumulative IPC: 0.39993 (Simulation time: 0 hr 6 min 6 sec) 
Heartbeat CPU  0 instructions:  230000003 cycles:  432437426 heartbeat IPC: 0.35874 cumulative IPC: 0.39957 (Simulation time: 0 hr 6 min 8 sec) 
Heartbeat CPU  0 instructions:  231000000 cycles:  435218449 heartbeat IPC: 0.35958 cumulative IPC: 0.39923 (Simulation time: 0 hr 6 min 10 sec) 
Heartbeat CPU  0 instructions:  232000000 cycles:  437932387 heartbeat IPC: 0.36847 cumulative IPC: 0.39898 (Simulation time: 0 hr 6 min 12 sec) 
Heartbeat CPU  0 instructions:  233000001 cycles:  440664049 heartbeat IPC: 0.36608 cumulative IPC: 0.39871 (Simulation time: 0 hr 6 min 14 sec) 
Heartbeat CPU  0 instructions:  234000000 cycles:  443397793 heartbeat IPC: 0.36580 cumulative IPC: 0.39844 (Simulation time: 0 hr 6 min 15 sec) 
Heartbeat CPU  0 instructions:  235000000 cycles:  446111194 heartbeat IPC: 0.36854 cumulative IPC: 0.39821 (Simulation time: 0 hr 6 min 17 sec) 
Heartbeat CPU  0 instructions:  236000000 cycles:  448581444 heartbeat IPC: 0.40482 cumulative IPC: 0.39825 (Simulation time: 0 hr 6 min 19 sec) 
Heartbeat CPU  0 instructions:  237000001 cycles:  450923345 heartbeat IPC: 0.42700 cumulative IPC: 0.39845 (Simulation time: 0 hr 6 min 21 sec) 
Heartbeat CPU  0 instructions:  238000000 cycles:  453471286 heartbeat IPC: 0.39247 cumulative IPC: 0.39841 (Simulation time: 0 hr 6 min 23 sec) 
Heartbeat CPU  0 instructions:  239000000 cycles:  456232849 heartbeat IPC: 0.36211 cumulative IPC: 0.39812 (Simulation time: 0 hr 6 min 24 sec) 
Heartbeat CPU  0 instructions:  240000000 cycles:  458905373 heartbeat IPC: 0.37418 cumulative IPC: 0.39794 (Simulation time: 0 hr 6 min 26 sec) 
Heartbeat CPU  0 instructions:  241000000 cycles:  461604074 heartbeat IPC: 0.37055 cumulative IPC: 0.39773 (Simulation time: 0 hr 6 min 28 sec) 
Heartbeat CPU  0 instructions:  242000003 cycles:  464433491 heartbeat IPC: 0.35343 cumulative IPC: 0.39738 (Simulation time: 0 hr 6 min 30 sec) 
Heartbeat CPU  0 instructions:  243000001 cycles:  467200302 heartbeat IPC: 0.36143 cumulative IPC: 0.39710 (Simulation time: 0 hr 6 min 32 sec) 
Heartbeat CPU  0 instructions:  244000000 cycles:  469808053 heartbeat IPC: 0.38347 cumulative IPC: 0.39700 (Simulation time: 0 hr 6 min 34 sec) 
Heartbeat CPU  0 instructions:  245000000 cycles:  472359080 heartbeat IPC: 0.39200 cumulative IPC: 0.39697 (Simulation time: 0 hr 6 min 36 sec) 
Heartbeat CPU  0 instructions:  246000001 cycles:  475099191 heartbeat IPC: 0.36495 cumulative IPC: 0.39673 (Simulation time: 0 hr 6 min 38 sec) 
Heartbeat CPU  0 instructions:  247000002 cycles:  477750840 heartbeat IPC: 0.37712 cumulative IPC: 0.39659 (Simulation time: 0 hr 6 min 39 sec) 
Heartbeat CPU  0 instructions:  248000000 cycles:  480335640 heartbeat IPC: 0.38688 cumulative IPC: 0.39652 (Simulation time: 0 hr 6 min 41 sec) 
Heartbeat CPU  0 instructions:  249000003 cycles:  482885599 heartbeat IPC: 0.39216 cumulative IPC: 0.39649 (Simulation time: 0 hr 6 min 43 sec) 
Heartbeat CPU  0 instructions:  250000000 cycles:  485286591 heartbeat IPC: 0.41649 cumulative IPC: 0.39662 (Simulation time: 0 hr 6 min 45 sec) 
Heartbeat CPU  0 instructions:  251000002 cycles:  488002761 heartbeat IPC: 0.36817 cumulative IPC: 0.39642 (Simulation time: 0 hr 6 min 47 sec) 
Heartbeat CPU  0 instructions:  252000000 cycles:  490710138 heartbeat IPC: 0.36936 cumulative IPC: 0.39623 (Simulation time: 0 hr 6 min 49 sec) 
Heartbeat CPU  0 instructions:  253000000 cycles:  493517812 heartbeat IPC: 0.35617 cumulative IPC: 0.39593 (Simulation time: 0 hr 6 min 50 sec) 
Heartbeat CPU  0 instructions:  254000002 cycles:  496236900 heartbeat IPC: 0.36777 cumulative IPC: 0.39574 (Simulation time: 0 hr 6 min 52 sec) 
Heartbeat CPU  0 instructions:  255000001 cycles:  498967150 heartbeat IPC: 0.36627 cumulative IPC: 0.39553 (Simulation time: 0 hr 6 min 54 sec) 
Heartbeat CPU  0 instructions:  256000000 cycles:  501698210 heartbeat IPC: 0.36616 cumulative IPC: 0.39533 (Simulation time: 0 hr 6 min 56 sec) 
Heartbeat CPU  0 instructions:  257000000 cycles:  504414797 heartbeat IPC: 0.36811 cumulative IPC: 0.39514 (Simulation time: 0 hr 6 min 58 sec) 
Heartbeat CPU  0 instructions:  258000000 cycles:  507124143 heartbeat IPC: 0.36909 cumulative IPC: 0.39497 (Simulation time: 0 hr 7 min 0 sec) 
Heartbeat CPU  0 instructions:  259000000 cycles:  509614273 heartbeat IPC: 0.40159 cumulative IPC: 0.39501 (Simulation time: 0 hr 7 min 2 sec) 
Heartbeat CPU  0 instructions:  260000000 cycles:  512289079 heartbeat IPC: 0.37386 cumulative IPC: 0.39487 (Simulation time: 0 hr 7 min 4 sec) 
Heartbeat CPU  0 instructions:  261000000 cycles:  514997329 heartbeat IPC: 0.36924 cumulative IPC: 0.39470 (Simulation time: 0 hr 7 min 5 sec) 
Heartbeat CPU  0 instructions:  262000000 cycles:  517724261 heartbeat IPC: 0.36671 cumulative IPC: 0.39451 (Simulation time: 0 hr 7 min 7 sec) 
Heartbeat CPU  0 instructions:  263000001 cycles:  520417177 heartbeat IPC: 0.37135 cumulative IPC: 0.39436 (Simulation time: 0 hr 7 min 9 sec) 
Heartbeat CPU  0 instructions:  264000000 cycles:  523050188 heartbeat IPC: 0.37979 cumulative IPC: 0.39427 (Simulation time: 0 hr 7 min 11 sec) 
Heartbeat CPU  0 instructions:  265000002 cycles:  525680614 heartbeat IPC: 0.38017 cumulative IPC: 0.39418 (Simulation time: 0 hr 7 min 13 sec) 
Heartbeat CPU  0 instructions:  266000002 cycles:  528327808 heartbeat IPC: 0.37776 cumulative IPC: 0.39408 (Simulation time: 0 hr 7 min 15 sec) 
Heartbeat CPU  0 instructions:  267000003 cycles:  531054226 heartbeat IPC: 0.36678 cumulative IPC: 0.39390 (Simulation time: 0 hr 7 min 17 sec) 
Heartbeat CPU  0 instructions:  268000000 cycles:  533796484 heartbeat IPC: 0.36466 cumulative IPC: 0.39371 (Simulation time: 0 hr 7 min 18 sec) 
Heartbeat CPU  0 instructions:  269000001 cycles:  536528039 heartbeat IPC: 0.36609 cumulative IPC: 0.39354 (Simulation time: 0 hr 7 min 20 sec) 
Heartbeat CPU  0 instructions:  270000001 cycles:  539232169 heartbeat IPC: 0.36980 cumulative IPC: 0.39339 (Simulation time: 0 hr 7 min 22 sec) 
Heartbeat CPU  0 instructions:  271000003 cycles:  541925949 heartbeat IPC: 0.37123 cumulative IPC: 0.39325 (Simulation time: 0 hr 7 min 24 sec) 
Heartbeat CPU  0 instructions:  272000000 cycles:  544652167 heartbeat IPC: 0.36681 cumulative IPC: 0.39309 (Simulation time: 0 hr 7 min 26 sec) 
Heartbeat CPU  0 instructions:  273000001 cycles:  547341295 heartbeat IPC: 0.37187 cumulative IPC: 0.39296 (Simulation time: 0 hr 7 min 28 sec) 
Heartbeat CPU  0 instructions:  274000003 cycles:  550122319 heartbeat IPC: 0.35958 cumulative IPC: 0.39275 (Simulation time: 0 hr 7 min 29 sec) 
Heartbeat CPU  0 instructions:  275000002 cycles:  552852306 heartbeat IPC: 0.36630 cumulative IPC: 0.39259 (Simulation time: 0 hr 7 min 31 sec) 
Heartbeat CPU  0 instructions:  276000000 cycles:  555514788 heartbeat IPC: 0.37559 cumulative IPC: 0.39249 (Simulation time: 0 hr 7 min 33 sec) 
Heartbeat CPU  0 instructions:  277000000 cycles:  558085475 heartbeat IPC: 0.38900 cumulative IPC: 0.39247 (Simulation time: 0 hr 7 min 35 sec) 
Heartbeat CPU  0 instructions:  278000001 cycles:  560572589 heartbeat IPC: 0.40207 cumulative IPC: 0.39252 (Simulation time: 0 hr 7 min 37 sec) 
Heartbeat CPU  0 instructions:  279000002 cycles:  563149195 heartbeat IPC: 0.38811 cumulative IPC: 0.39249 (Simulation time: 0 hr 7 min 39 sec) 
Heartbeat CPU  0 instructions:  280000000 cycles:  565851176 heartbeat IPC: 0.37010 cumulative IPC: 0.39236 (Simulation time: 0 hr 7 min 41 sec) 
Heartbeat CPU  0 instructions:  281000002 cycles:  568574841 heartbeat IPC: 0.36715 cumulative IPC: 0.39221 (Simulation time: 0 hr 7 min 43 sec) 
Heartbeat CPU  0 instructions:  282000003 cycles:  571215106 heartbeat IPC: 0.37875 cumulative IPC: 0.39214 (Simulation time: 0 hr 7 min 44 sec) 
Heartbeat CPU  0 instructions:  283000001 cycles:  573673330 heartbeat IPC: 0.40680 cumulative IPC: 0.39221 (Simulation time: 0 hr 7 min 46 sec) 
Heartbeat CPU  0 instructions:  284000000 cycles:  576285461 heartbeat IPC: 0.38283 cumulative IPC: 0.39216 (Simulation time: 0 hr 7 min 48 sec) 
Heartbeat CPU  0 instructions:  285000001 cycles:  578952883 heartbeat IPC: 0.37489 cumulative IPC: 0.39206 (Simulation time: 0 hr 7 min 50 sec) 
Heartbeat CPU  0 instructions:  286000000 cycles:  581438744 heartbeat IPC: 0.40227 cumulative IPC: 0.39212 (Simulation time: 0 hr 7 min 52 sec) 
Heartbeat CPU  0 instructions:  287000002 cycles:  584004585 heartbeat IPC: 0.38974 cumulative IPC: 0.39210 (Simulation time: 0 hr 7 min 54 sec) 
Heartbeat CPU  0 instructions:  288000000 cycles:  586715874 heartbeat IPC: 0.36883 cumulative IPC: 0.39197 (Simulation time: 0 hr 7 min 55 sec) 
Heartbeat CPU  0 instructions:  289000000 cycles:  589470536 heartbeat IPC: 0.36302 cumulative IPC: 0.39181 (Simulation time: 0 hr 7 min 57 sec) 
Heartbeat CPU  0 instructions:  290000002 cycles:  592038416 heartbeat IPC: 0.38943 cumulative IPC: 0.39179 (Simulation time: 0 hr 7 min 59 sec) 
Heartbeat CPU  0 instructions:  291000000 cycles:  594910826 heartbeat IPC: 0.34814 cumulative IPC: 0.39154 (Simulation time: 0 hr 8 min 1 sec) 
Heartbeat CPU  0 instructions:  292000000 cycles:  597728407 heartbeat IPC: 0.35491 cumulative IPC: 0.39133 (Simulation time: 0 hr 8 min 3 sec) 
Heartbeat CPU  0 instructions:  293000000 cycles:  600506773 heartbeat IPC: 0.35992 cumulative IPC: 0.39115 (Simulation time: 0 hr 8 min 5 sec) 
Heartbeat CPU  0 instructions:  294000002 cycles:  603256533 heartbeat IPC: 0.36367 cumulative IPC: 0.39100 (Simulation time: 0 hr 8 min 7 sec) 
Heartbeat CPU  0 instructions:  295000001 cycles:  605954866 heartbeat IPC: 0.37060 cumulative IPC: 0.39089 (Simulation time: 0 hr 8 min 8 sec) 
Heartbeat CPU  0 instructions:  296000000 cycles:  608702470 heartbeat IPC: 0.36395 cumulative IPC: 0.39074 (Simulation time: 0 hr 8 min 10 sec) 
Heartbeat CPU  0 instructions:  297000000 cycles:  611414196 heartbeat IPC: 0.36877 cumulative IPC: 0.39062 (Simulation time: 0 hr 8 min 12 sec) 
Heartbeat CPU  0 instructions:  298000000 cycles:  614083583 heartbeat IPC: 0.37462 cumulative IPC: 0.39054 (Simulation time: 0 hr 8 min 14 sec) 
Heartbeat CPU  0 instructions:  299000000 cycles:  616861415 heartbeat IPC: 0.35999 cumulative IPC: 0.39037 (Simulation time: 0 hr 8 min 16 sec) 
Heartbeat CPU  0 instructions:  300000000 cycles:  619532857 heartbeat IPC: 0.37433 cumulative IPC: 0.39029 (Simulation time: 0 hr 8 min 18 sec) 
Heartbeat CPU  0 instructions:  301000000 cycles:  622298214 heartbeat IPC: 0.36162 cumulative IPC: 0.39013 (Simulation time: 0 hr 8 min 20 sec) 
Heartbeat CPU  0 instructions:  302000000 cycles:  625041123 heartbeat IPC: 0.36458 cumulative IPC: 0.39000 (Simulation time: 0 hr 8 min 22 sec) 
Heartbeat CPU  0 instructions:  303000000 cycles:  627916222 heartbeat IPC: 0.34781 cumulative IPC: 0.38977 (Simulation time: 0 hr 8 min 23 sec) 
Heartbeat CPU  0 instructions:  304000000 cycles:  630632638 heartbeat IPC: 0.36813 cumulative IPC: 0.38965 (Simulation time: 0 hr 8 min 25 sec) 
Heartbeat CPU  0 instructions:  305000002 cycles:  633261162 heartbeat IPC: 0.38044 cumulative IPC: 0.38961 (Simulation time: 0 hr 8 min 27 sec) 
Heartbeat CPU  0 instructions:  306000000 cycles:  636149102 heartbeat IPC: 0.34627 cumulative IPC: 0.38937 (Simulation time: 0 hr 8 min 29 sec) 
Heartbeat CPU  0 instructions:  307000000 cycles:  638868479 heartbeat IPC: 0.36773 cumulative IPC: 0.38926 (Simulation time: 0 hr 8 min 31 sec) 
Heartbeat CPU  0 instructions:  308000000 cycles:  641582156 heartbeat IPC: 0.36850 cumulative IPC: 0.38915 (Simulation time: 0 hr 8 min 33 sec) 
Heartbeat CPU  0 instructions:  309000000 cycles:  644256274 heartbeat IPC: 0.37396 cumulative IPC: 0.38908 (Simulation time: 0 hr 8 min 35 sec) 
Heartbeat CPU  0 instructions:  310000000 cycles:  646678110 heartbeat IPC: 0.41291 cumulative IPC: 0.38919 (Simulation time: 0 hr 8 min 36 sec) 
Heartbeat CPU  0 instructions:  311000000 cycles:  648560366 heartbeat IPC: 0.53128 cumulative IPC: 0.38968 (Simulation time: 0 hr 8 min 38 sec) 
Heartbeat CPU  0 instructions:  312000000 cycles:  651193122 heartbeat IPC: 0.37983 cumulative IPC: 0.38963 (Simulation time: 0 hr 8 min 40 sec) 
Heartbeat CPU  0 instructions:  313000002 cycles:  653939647 heartbeat IPC: 0.36410 cumulative IPC: 0.38950 (Simulation time: 0 hr 8 min 42 sec) 
Heartbeat CPU  0 instructions:  314000002 cycles:  656673550 heartbeat IPC: 0.36578 cumulative IPC: 0.38939 (Simulation time: 0 hr 8 min 43 sec) 
Heartbeat CPU  0 instructions:  315000001 cycles:  659435837 heartbeat IPC: 0.36202 cumulative IPC: 0.38925 (Simulation time: 0 hr 8 min 45 sec) 
Heartbeat CPU  0 instructions:  316000000 cycles:  662245564 heartbeat IPC: 0.35591 cumulative IPC: 0.38908 (Simulation time: 0 hr 8 min 47 sec) 
Heartbeat CPU  0 instructions:  317000003 cycles:  664997453 heartbeat IPC: 0.36339 cumulative IPC: 0.38895 (Simulation time: 0 hr 8 min 49 sec) 
Heartbeat CPU  0 instructions:  318000000 cycles:  667709794 heartbeat IPC: 0.36868 cumulative IPC: 0.38886 (Simulation time: 0 hr 8 min 51 sec) 
Heartbeat CPU  0 instructions:  319000000 cycles:  670348873 heartbeat IPC: 0.37892 cumulative IPC: 0.38881 (Simulation time: 0 hr 8 min 53 sec) 
Heartbeat CPU  0 instructions:  320000000 cycles:  673025850 heartbeat IPC: 0.37356 cumulative IPC: 0.38874 (Simulation time: 0 hr 8 min 55 sec) 
Heartbeat CPU  0 instructions:  321000003 cycles:  675751063 heartbeat IPC: 0.36694 cumulative IPC: 0.38863 (Simulation time: 0 hr 8 min 56 sec) 
Heartbeat CPU  0 instructions:  322000002 cycles:  678362878 heartbeat IPC: 0.38288 cumulative IPC: 0.38861 (Simulation time: 0 hr 8 min 58 sec) 
Heartbeat CPU  0 instructions:  323000000 cycles:  680984728 heartbeat IPC: 0.38141 cumulative IPC: 0.38857 (Simulation time: 0 hr 9 min 0 sec) 
Heartbeat CPU  0 instructions:  324000000 cycles:  683040826 heartbeat IPC: 0.48636 cumulative IPC: 0.38892 (Simulation time: 0 hr 9 min 2 sec) 
Heartbeat CPU  0 instructions:  325000001 cycles:  685434368 heartbeat IPC: 0.41779 cumulative IPC: 0.38904 (Simulation time: 0 hr 9 min 3 sec) 
Heartbeat CPU  0 instructions:  326000000 cycles:  687898642 heartbeat IPC: 0.40580 cumulative IPC: 0.38911 (Simulation time: 0 hr 9 min 5 sec) 
Heartbeat CPU  0 instructions:  327000000 cycles:  690323167 heartbeat IPC: 0.41245 cumulative IPC: 0.38921 (Simulation time: 0 hr 9 min 7 sec) 
Heartbeat CPU  0 instructions:  328000000 cycles:  692996215 heartbeat IPC: 0.37410 cumulative IPC: 0.38914 (Simulation time: 0 hr 9 min 9 sec) 
Heartbeat CPU  0 instructions:  329000003 cycles:  695493424 heartbeat IPC: 0.40045 cumulative IPC: 0.38919 (Simulation time: 0 hr 9 min 11 sec) 
Heartbeat CPU  0 instructions:  330000001 cycles:  697839775 heartbeat IPC: 0.42619 cumulative IPC: 0.38934 (Simulation time: 0 hr 9 min 13 sec) 
Heartbeat CPU  0 instructions:  331000001 cycles:  700209521 heartbeat IPC: 0.42199 cumulative IPC: 0.38947 (Simulation time: 0 hr 9 min 14 sec) 
Heartbeat CPU  0 instructions:  332000000 cycles:  702799522 heartbeat IPC: 0.38610 cumulative IPC: 0.38945 (Simulation time: 0 hr 9 min 16 sec) 
Heartbeat CPU  0 instructions:  333000000 cycles:  705379701 heartbeat IPC: 0.38757 cumulative IPC: 0.38944 (Simulation time: 0 hr 9 min 18 sec) 
Heartbeat CPU  0 instructions:  334000001 cycles:  707924908 heartbeat IPC: 0.39290 cumulative IPC: 0.38946 (Simulation time: 0 hr 9 min 20 sec) 
Heartbeat CPU  0 instructions:  335000000 cycles:  710531861 heartbeat IPC: 0.38359 cumulative IPC: 0.38943 (Simulation time: 0 hr 9 min 22 sec) 
Heartbeat CPU  0 instructions:  336000000 cycles:  712932220 heartbeat IPC: 0.41660 cumulative IPC: 0.38954 (Simulation time: 0 hr 9 min 24 sec) 
Heartbeat CPU  0 instructions:  337000000 cycles:  715322366 heartbeat IPC: 0.41838 cumulative IPC: 0.38965 (Simulation time: 0 hr 9 min 25 sec) 
Heartbeat CPU  0 instructions:  338000001 cycles:  717799967 heartbeat IPC: 0.40362 cumulative IPC: 0.38971 (Simulation time: 0 hr 9 min 27 sec) 
Heartbeat CPU  0 instructions:  339000000 cycles:  720264636 heartbeat IPC: 0.40573 cumulative IPC: 0.38977 (Simulation time: 0 hr 9 min 29 sec) 
Heartbeat CPU  0 instructions:  340000000 cycles:  722887703 heartbeat IPC: 0.38123 cumulative IPC: 0.38974 (Simulation time: 0 hr 9 min 31 sec) 
Heartbeat CPU  0 instructions:  341000002 cycles:  725496023 heartbeat IPC: 0.38339 cumulative IPC: 0.38971 (Simulation time: 0 hr 9 min 33 sec) 
Heartbeat CPU  0 instructions:  342000001 cycles:  728258582 heartbeat IPC: 0.36198 cumulative IPC: 0.38959 (Simulation time: 0 hr 9 min 34 sec) 
Heartbeat CPU  0 instructions:  343000003 cycles:  730851065 heartbeat IPC: 0.38573 cumulative IPC: 0.38957 (Simulation time: 0 hr 9 min 36 sec) 
Heartbeat CPU  0 instructions:  344000000 cycles:  733380293 heartbeat IPC: 0.39538 cumulative IPC: 0.38960 (Simulation time: 0 hr 9 min 38 sec) 
Heartbeat CPU  0 instructions:  345000003 cycles:  736175279 heartbeat IPC: 0.35778 cumulative IPC: 0.38945 (Simulation time: 0 hr 9 min 40 sec) 
Heartbeat CPU  0 instructions:  346000001 cycles:  738898141 heartbeat IPC: 0.36726 cumulative IPC: 0.38936 (Simulation time: 0 hr 9 min 42 sec) 
Heartbeat CPU  0 instructions:  347000002 cycles:  741388625 heartbeat IPC: 0.40153 cumulative IPC: 0.38941 (Simulation time: 0 hr 9 min 44 sec) 
Heartbeat CPU  0 instructions:  348000000 cycles:  743756173 heartbeat IPC: 0.42238 cumulative IPC: 0.38953 (Simulation time: 0 hr 9 min 45 sec) 
Heartbeat CPU  0 instructions:  349000000 cycles:  746394059 heartbeat IPC: 0.37909 cumulative IPC: 0.38949 (Simulation time: 0 hr 9 min 47 sec) 
Heartbeat CPU  0 instructions:  350000001 cycles:  748914706 heartbeat IPC: 0.39672 cumulative IPC: 0.38951 (Simulation time: 0 hr 9 min 49 sec) 
Heartbeat CPU  0 instructions:  351000000 cycles:  751717483 heartbeat IPC: 0.35679 cumulative IPC: 0.38937 (Simulation time: 0 hr 9 min 51 sec) 
Heartbeat CPU  0 instructions:  352000000 cycles:  754396839 heartbeat IPC: 0.37322 cumulative IPC: 0.38931 (Simulation time: 0 hr 9 min 53 sec) 
Heartbeat CPU  0 instructions:  353000002 cycles:  756968542 heartbeat IPC: 0.38885 cumulative IPC: 0.38930 (Simulation time: 0 hr 9 min 55 sec) 
Heartbeat CPU  0 instructions:  354000000 cycles:  759620598 heartbeat IPC: 0.37707 cumulative IPC: 0.38925 (Simulation time: 0 hr 9 min 57 sec) 
Heartbeat CPU  0 instructions:  355000003 cycles:  762362251 heartbeat IPC: 0.36474 cumulative IPC: 0.38915 (Simulation time: 0 hr 9 min 58 sec) 
Heartbeat CPU  0 instructions:  356000000 cycles:  765096192 heartbeat IPC: 0.36577 cumulative IPC: 0.38905 (Simulation time: 0 hr 10 min 0 sec) 
Heartbeat CPU  0 instructions:  357000000 cycles:  767770456 heartbeat IPC: 0.37393 cumulative IPC: 0.38899 (Simulation time: 0 hr 10 min 2 sec) 
Heartbeat CPU  0 instructions:  358000000 cycles:  770474878 heartbeat IPC: 0.36976 cumulative IPC: 0.38891 (Simulation time: 0 hr 10 min 4 sec) 
Heartbeat CPU  0 instructions:  359000000 cycles:  773162363 heartbeat IPC: 0.37210 cumulative IPC: 0.38885 (Simulation time: 0 hr 10 min 6 sec) 
Heartbeat CPU  0 instructions:  360000000 cycles:  775839935 heartbeat IPC: 0.37347 cumulative IPC: 0.38879 (Simulation time: 0 hr 10 min 8 sec) 
Heartbeat CPU  0 instructions:  361000000 cycles:  778373499 heartbeat IPC: 0.39470 cumulative IPC: 0.38881 (Simulation time: 0 hr 10 min 10 sec) 
Heartbeat CPU  0 instructions:  362000000 cycles:  781270091 heartbeat IPC: 0.34523 cumulative IPC: 0.38862 (Simulation time: 0 hr 10 min 12 sec) 
Heartbeat CPU  0 instructions:  363000000 cycles:  784052907 heartbeat IPC: 0.35935 cumulative IPC: 0.38850 (Simulation time: 0 hr 10 min 13 sec) 
Heartbeat CPU  0 instructions:  364000000 cycles:  786433353 heartbeat IPC: 0.42009 cumulative IPC: 0.38861 (Simulation time: 0 hr 10 min 15 sec) 
Heartbeat CPU  0 instructions:  365000000 cycles:  788832978 heartbeat IPC: 0.41673 cumulative IPC: 0.38871 (Simulation time: 0 hr 10 min 17 sec) 
Heartbeat CPU  0 instructions:  366000002 cycles:  790670204 heartbeat IPC: 0.54430 cumulative IPC: 0.38913 (Simulation time: 0 hr 10 min 18 sec) 
Heartbeat CPU  0 instructions:  367000000 cycles:  792417082 heartbeat IPC: 0.57245 cumulative IPC: 0.38960 (Simulation time: 0 hr 10 min 20 sec) 
Heartbeat CPU  0 instructions:  368000000 cycles:  795018049 heartbeat IPC: 0.38447 cumulative IPC: 0.38958 (Simulation time: 0 hr 10 min 22 sec) 
Heartbeat CPU  0 instructions:  369000000 cycles:  797794756 heartbeat IPC: 0.36014 cumulative IPC: 0.38946 (Simulation time: 0 hr 10 min 24 sec) 
Heartbeat CPU  0 instructions:  370000000 cycles:  800627738 heartbeat IPC: 0.35298 cumulative IPC: 0.38931 (Simulation time: 0 hr 10 min 25 sec) 
Heartbeat CPU  0 instructions:  371000003 cycles:  803289987 heartbeat IPC: 0.37562 cumulative IPC: 0.38926 (Simulation time: 0 hr 10 min 27 sec) 
Heartbeat CPU  0 instructions:  372000000 cycles:  805949207 heartbeat IPC: 0.37605 cumulative IPC: 0.38921 (Simulation time: 0 hr 10 min 29 sec) 
Heartbeat CPU  0 instructions:  373000002 cycles:  808611694 heartbeat IPC: 0.37559 cumulative IPC: 0.38915 (Simulation time: 0 hr 10 min 31 sec) 
Heartbeat CPU  0 instructions:  374000001 cycles:  811405124 heartbeat IPC: 0.35798 cumulative IPC: 0.38903 (Simulation time: 0 hr 10 min 33 sec) 
Heartbeat CPU  0 instructions:  375000000 cycles:  814177220 heartbeat IPC: 0.36074 cumulative IPC: 0.38892 (Simulation time: 0 hr 10 min 35 sec) 
Heartbeat CPU  0 instructions:  376000000 cycles:  816952687 heartbeat IPC: 0.36030 cumulative IPC: 0.38881 (Simulation time: 0 hr 10 min 37 sec) 
Heartbeat CPU  0 instructions:  377000002 cycles:  819719894 heartbeat IPC: 0.36138 cumulative IPC: 0.38870 (Simulation time: 0 hr 10 min 39 sec) 
Heartbeat CPU  0 instructions:  378000001 cycles:  822481167 heartbeat IPC: 0.36215 cumulative IPC: 0.38860 (Simulation time: 0 hr 10 min 40 sec) 
Heartbeat CPU  0 instructions:  379000000 cycles:  825335475 heartbeat IPC: 0.35035 cumulative IPC: 0.38845 (Simulation time: 0 hr 10 min 42 sec) 
Heartbeat CPU  0 instructions:  380000000 cycles:  828164408 heartbeat IPC: 0.35349 cumulative IPC: 0.38831 (Simulation time: 0 hr 10 min 44 sec) 
Heartbeat CPU  0 instructions:  381000002 cycles:  830992269 heartbeat IPC: 0.35362 cumulative IPC: 0.38817 (Simulation time: 0 hr 10 min 46 sec) 
Heartbeat CPU  0 instructions:  382000000 cycles:  833702207 heartbeat IPC: 0.36901 cumulative IPC: 0.38810 (Simulation time: 0 hr 10 min 48 sec) 
Heartbeat CPU  0 instructions:  383000001 cycles:  836414141 heartbeat IPC: 0.36874 cumulative IPC: 0.38803 (Simulation time: 0 hr 10 min 50 sec) 
Heartbeat CPU  0 instructions:  384000000 cycles:  839213341 heartbeat IPC: 0.35724 cumulative IPC: 0.38791 (Simulation time: 0 hr 10 min 51 sec) 
Heartbeat CPU  0 instructions:  385000002 cycles:  841934668 heartbeat IPC: 0.36747 cumulative IPC: 0.38784 (Simulation time: 0 hr 10 min 53 sec) 
Heartbeat CPU  0 instructions:  386000000 cycles:  844509182 heartbeat IPC: 0.38842 cumulative IPC: 0.38784 (Simulation time: 0 hr 10 min 55 sec) 
Heartbeat CPU  0 instructions:  387000000 cycles:  847119088 heartbeat IPC: 0.38316 cumulative IPC: 0.38782 (Simulation time: 0 hr 10 min 57 sec) 
Heartbeat CPU  0 instructions:  388000000 cycles:  849928200 heartbeat IPC: 0.35598 cumulative IPC: 0.38770 (Simulation time: 0 hr 10 min 59 sec) 
Heartbeat CPU  0 instructions:  389000000 cycles:  852595295 heartbeat IPC: 0.37494 cumulative IPC: 0.38766 (Simulation time: 0 hr 11 min 1 sec) 
Heartbeat CPU  0 instructions:  390000001 cycles:  855430037 heartbeat IPC: 0.35277 cumulative IPC: 0.38752 (Simulation time: 0 hr 11 min 3 sec) 
Heartbeat CPU  0 instructions:  391000001 cycles:  858169034 heartbeat IPC: 0.36510 cumulative IPC: 0.38744 (Simulation time: 0 hr 11 min 4 sec) 
Heartbeat CPU  0 instructions:  392000000 cycles:  860790600 heartbeat IPC: 0.38145 cumulative IPC: 0.38742 (Simulation time: 0 hr 11 min 6 sec) 
Heartbeat CPU  0 instructions:  393000001 cycles:  863580518 heartbeat IPC: 0.35843 cumulative IPC: 0.38731 (Simulation time: 0 hr 11 min 8 sec) 
Heartbeat CPU  0 instructions:  394000002 cycles:  866291073 heartbeat IPC: 0.36893 cumulative IPC: 0.38725 (Simulation time: 0 hr 11 min 10 sec) 
Heartbeat CPU  0 instructions:  395000000 cycles:  868885761 heartbeat IPC: 0.38540 cumulative IPC: 0.38724 (Simulation time: 0 hr 11 min 12 sec) 
Heartbeat CPU  0 instructions:  396000000 cycles:  871715276 heartbeat IPC: 0.35342 cumulative IPC: 0.38712 (Simulation time: 0 hr 11 min 14 sec) 
Heartbeat CPU  0 instructions:  397000000 cycles:  874485547 heartbeat IPC: 0.36098 cumulative IPC: 0.38702 (Simulation time: 0 hr 11 min 16 sec) 
Heartbeat CPU  0 instructions:  398000000 cycles:  877023528 heartbeat IPC: 0.39401 cumulative IPC: 0.38705 (Simulation time: 0 hr 11 min 17 sec) 
Heartbeat CPU  0 instructions:  399000000 cycles:  879821131 heartbeat IPC: 0.35745 cumulative IPC: 0.38694 (Simulation time: 0 hr 11 min 19 sec) 
Heartbeat CPU  0 instructions:  400000000 cycles:  882369933 heartbeat IPC: 0.39234 cumulative IPC: 0.38696 (Simulation time: 0 hr 11 min 21 sec) 
Heartbeat CPU  0 instructions:  401000003 cycles:  885084105 heartbeat IPC: 0.36844 cumulative IPC: 0.38689 (Simulation time: 0 hr 11 min 23 sec) 
Heartbeat CPU  0 instructions:  402000001 cycles:  887638900 heartbeat IPC: 0.39142 cumulative IPC: 0.38691 (Simulation time: 0 hr 11 min 25 sec) 
Heartbeat CPU  0 instructions:  403000001 cycles:  890125065 heartbeat IPC: 0.40223 cumulative IPC: 0.38696 (Simulation time: 0 hr 11 min 26 sec) 
Heartbeat CPU  0 instructions:  404000000 cycles:  892992198 heartbeat IPC: 0.34878 cumulative IPC: 0.38682 (Simulation time: 0 hr 11 min 28 sec) 
Heartbeat CPU  0 instructions:  405000001 cycles:  895831894 heartbeat IPC: 0.35215 cumulative IPC: 0.38669 (Simulation time: 0 hr 11 min 30 sec) 
Heartbeat CPU  0 instructions:  406000002 cycles:  898671662 heartbeat IPC: 0.35214 cumulative IPC: 0.38657 (Simulation time: 0 hr 11 min 32 sec) 
Heartbeat CPU  0 instructions:  407000000 cycles:  901331640 heartbeat IPC: 0.37594 cumulative IPC: 0.38653 (Simulation time: 0 hr 11 min 34 sec) 
Heartbeat CPU  0 instructions:  408000000 cycles:  904095839 heartbeat IPC: 0.36177 cumulative IPC: 0.38645 (Simulation time: 0 hr 11 min 36 sec) 
Heartbeat CPU  0 instructions:  409000003 cycles:  906832058 heartbeat IPC: 0.36547 cumulative IPC: 0.38637 (Simulation time: 0 hr 11 min 37 sec) 
Heartbeat CPU  0 instructions:  410000002 cycles:  909487194 heartbeat IPC: 0.37663 cumulative IPC: 0.38634 (Simulation time: 0 hr 11 min 39 sec) 
Heartbeat CPU  0 instructions:  411000000 cycles:  912259913 heartbeat IPC: 0.36066 cumulative IPC: 0.38625 (Simulation time: 0 hr 11 min 41 sec) 
Heartbeat CPU  0 instructions:  412000000 cycles:  914939646 heartbeat IPC: 0.37317 cumulative IPC: 0.38621 (Simulation time: 0 hr 11 min 43 sec) 
Heartbeat CPU  0 instructions:  413000001 cycles:  917749240 heartbeat IPC: 0.35592 cumulative IPC: 0.38611 (Simulation time: 0 hr 11 min 45 sec) 
Heartbeat CPU  0 instructions:  414000003 cycles:  920402421 heartbeat IPC: 0.37691 cumulative IPC: 0.38608 (Simulation time: 0 hr 11 min 47 sec) 
Heartbeat CPU  0 instructions:  415000002 cycles:  923074543 heartbeat IPC: 0.37423 cumulative IPC: 0.38604 (Simulation time: 0 hr 11 min 48 sec) 
Heartbeat CPU  0 instructions:  416000000 cycles:  925766264 heartbeat IPC: 0.37151 cumulative IPC: 0.38599 (Simulation time: 0 hr 11 min 50 sec) 
Heartbeat CPU  0 instructions:  417000003 cycles:  928515140 heartbeat IPC: 0.36379 cumulative IPC: 0.38591 (Simulation time: 0 hr 11 min 52 sec) 
Heartbeat CPU  0 instructions:  418000001 cycles:  931281503 heartbeat IPC: 0.36148 cumulative IPC: 0.38583 (Simulation time: 0 hr 11 min 54 sec) 
Heartbeat CPU  0 instructions:  419000000 cycles:  934103866 heartbeat IPC: 0.35431 cumulative IPC: 0.38573 (Simulation time: 0 hr 11 min 56 sec) 
Heartbeat CPU  0 instructions:  420000000 cycles:  936852143 heartbeat IPC: 0.36386 cumulative IPC: 0.38565 (Simulation time: 0 hr 11 min 58 sec) 
Heartbeat CPU  0 instructions:  421000000 cycles:  939379818 heartbeat IPC: 0.39562 cumulative IPC: 0.38568 (Simulation time: 0 hr 11 min 59 sec) 
Heartbeat CPU  0 instructions:  422000001 cycles:  942207275 heartbeat IPC: 0.35368 cumulative IPC: 0.38557 (Simulation time: 0 hr 12 min 1 sec) 
Heartbeat CPU  0 instructions:  423000003 cycles:  944913767 heartbeat IPC: 0.36948 cumulative IPC: 0.38552 (Simulation time: 0 hr 12 min 3 sec) 
Heartbeat CPU  0 instructions:  424000000 cycles:  947504766 heartbeat IPC: 0.38595 cumulative IPC: 0.38552 (Simulation time: 0 hr 12 min 5 sec) 
Heartbeat CPU  0 instructions:  425000001 cycles:  950232753 heartbeat IPC: 0.36657 cumulative IPC: 0.38546 (Simulation time: 0 hr 12 min 7 sec) 
Heartbeat CPU  0 instructions:  426000003 cycles:  952734368 heartbeat IPC: 0.39974 cumulative IPC: 0.38550 (Simulation time: 0 hr 12 min 8 sec) 
Heartbeat CPU  0 instructions:  427000002 cycles:  955327884 heartbeat IPC: 0.38558 cumulative IPC: 0.38551 (Simulation time: 0 hr 12 min 10 sec) 
Heartbeat CPU  0 instructions:  428000000 cycles:  957910647 heartbeat IPC: 0.38718 cumulative IPC: 0.38551 (Simulation time: 0 hr 12 min 12 sec) 
Heartbeat CPU  0 instructions:  429000003 cycles:  960469390 heartbeat IPC: 0.39082 cumulative IPC: 0.38553 (Simulation time: 0 hr 12 min 14 sec) 
Heartbeat CPU  0 instructions:  430000002 cycles:  963227079 heartbeat IPC: 0.36262 cumulative IPC: 0.38545 (Simulation time: 0 hr 12 min 16 sec) 
Heartbeat CPU  0 instructions:  431000001 cycles:  965744991 heartbeat IPC: 0.39715 cumulative IPC: 0.38549 (Simulation time: 0 hr 12 min 17 sec) 
Heartbeat CPU  0 instructions:  432000000 cycles:  968449088 heartbeat IPC: 0.36981 cumulative IPC: 0.38544 (Simulation time: 0 hr 12 min 19 sec) 
Heartbeat CPU  0 instructions:  433000003 cycles:  971139685 heartbeat IPC: 0.37167 cumulative IPC: 0.38539 (Simulation time: 0 hr 12 min 21 sec) 
Heartbeat CPU  0 instructions:  434000000 cycles:  973707419 heartbeat IPC: 0.38945 cumulative IPC: 0.38541 (Simulation time: 0 hr 12 min 23 sec) 
Heartbeat CPU  0 instructions:  435000000 cycles:  976506994 heartbeat IPC: 0.35720 cumulative IPC: 0.38532 (Simulation time: 0 hr 12 min 25 sec) 
Heartbeat CPU  0 instructions:  436000000 cycles:  978842328 heartbeat IPC: 0.42820 cumulative IPC: 0.38543 (Simulation time: 0 hr 12 min 26 sec) 
Heartbeat CPU  0 instructions:  437000003 cycles:  981415929 heartbeat IPC: 0.38856 cumulative IPC: 0.38544 (Simulation time: 0 hr 12 min 28 sec) 
Heartbeat CPU  0 instructions:  438000001 cycles:  984283262 heartbeat IPC: 0.34876 cumulative IPC: 0.38532 (Simulation time: 0 hr 12 min 30 sec) 
Heartbeat CPU  0 instructions:  439000000 cycles:  987169093 heartbeat IPC: 0.34652 cumulative IPC: 0.38519 (Simulation time: 0 hr 12 min 32 sec) 
Heartbeat CPU  0 instructions:  440000000 cycles:  989933243 heartbeat IPC: 0.36177 cumulative IPC: 0.38512 (Simulation time: 0 hr 12 min 34 sec) 
Heartbeat CPU  0 instructions:  441000003 cycles:  992713527 heartbeat IPC: 0.35968 cumulative IPC: 0.38504 (Simulation time: 0 hr 12 min 36 sec) 
Heartbeat CPU  0 instructions:  442000002 cycles:  995469636 heartbeat IPC: 0.36283 cumulative IPC: 0.38497 (Simulation time: 0 hr 12 min 37 sec) 
Heartbeat CPU  0 instructions:  443000001 cycles:  998303629 heartbeat IPC: 0.35286 cumulative IPC: 0.38487 (Simulation time: 0 hr 12 min 39 sec) 
Heartbeat CPU  0 instructions:  444000000 cycles: 1001079941 heartbeat IPC: 0.36019 cumulative IPC: 0.38479 (Simulation time: 0 hr 12 min 41 sec) 
Heartbeat CPU  0 instructions:  445000000 cycles: 1003940641 heartbeat IPC: 0.34956 cumulative IPC: 0.38468 (Simulation time: 0 hr 12 min 43 sec) 
Heartbeat CPU  0 instructions:  446000000 cycles: 1006789927 heartbeat IPC: 0.35097 cumulative IPC: 0.38457 (Simulation time: 0 hr 12 min 45 sec) 
Heartbeat CPU  0 instructions:  447000000 cycles: 1009577904 heartbeat IPC: 0.35868 cumulative IPC: 0.38449 (Simulation time: 0 hr 12 min 47 sec) 
Heartbeat CPU  0 instructions:  448000000 cycles: 1012101506 heartbeat IPC: 0.39626 cumulative IPC: 0.38453 (Simulation time: 0 hr 12 min 49 sec) 
Heartbeat CPU  0 instructions:  449000001 cycles: 1014967017 heartbeat IPC: 0.34898 cumulative IPC: 0.38441 (Simulation time: 0 hr 12 min 50 sec) 
Heartbeat CPU  0 instructions:  450000002 cycles: 1017738730 heartbeat IPC: 0.36079 cumulative IPC: 0.38434 (Simulation time: 0 hr 12 min 52 sec) 
Heartbeat CPU  0 instructions:  451000001 cycles: 1020426366 heartbeat IPC: 0.37207 cumulative IPC: 0.38431 (Simulation time: 0 hr 12 min 54 sec) 
Heartbeat CPU  0 instructions:  452000000 cycles: 1023246331 heartbeat IPC: 0.35461 cumulative IPC: 0.38421 (Simulation time: 0 hr 12 min 56 sec) 
Heartbeat CPU  0 instructions:  453000001 cycles: 1026041558 heartbeat IPC: 0.35775 cumulative IPC: 0.38413 (Simulation time: 0 hr 12 min 58 sec) 
Heartbeat CPU  0 instructions:  454000003 cycles: 1028898020 heartbeat IPC: 0.35008 cumulative IPC: 0.38403 (Simulation time: 0 hr 13 min 0 sec) 
Heartbeat CPU  0 instructions:  455000000 cycles: 1031611201 heartbeat IPC: 0.36857 cumulative IPC: 0.38398 (Simulation time: 0 hr 13 min 2 sec) 
Heartbeat CPU  0 instructions:  456000000 cycles: 1034433079 heartbeat IPC: 0.35437 cumulative IPC: 0.38389 (Simulation time: 0 hr 13 min 3 sec) 
Heartbeat CPU  0 instructions:  457000000 cycles: 1037157001 heartbeat IPC: 0.36712 cumulative IPC: 0.38384 (Simulation time: 0 hr 13 min 5 sec) 
Heartbeat CPU  0 instructions:  458000003 cycles: 1039946265 heartbeat IPC: 0.35852 cumulative IPC: 0.38377 (Simulation time: 0 hr 13 min 7 sec) 
Heartbeat CPU  0 instructions:  459000001 cycles: 1042681080 heartbeat IPC: 0.36565 cumulative IPC: 0.38371 (Simulation time: 0 hr 13 min 9 sec) 
Heartbeat CPU  0 instructions:  460000000 cycles: 1045408921 heartbeat IPC: 0.36659 cumulative IPC: 0.38366 (Simulation time: 0 hr 13 min 11 sec) 
Heartbeat CPU  0 instructions:  461000002 cycles: 1048182429 heartbeat IPC: 0.36055 cumulative IPC: 0.38360 (Simulation time: 0 hr 13 min 13 sec) 
Heartbeat CPU  0 instructions:  462000001 cycles: 1050904908 heartbeat IPC: 0.36731 cumulative IPC: 0.38355 (Simulation time: 0 hr 13 min 14 sec) 
Heartbeat CPU  0 instructions:  463000001 cycles: 1053732305 heartbeat IPC: 0.35368 cumulative IPC: 0.38346 (Simulation time: 0 hr 13 min 16 sec) 
Heartbeat CPU  0 instructions:  464000000 cycles: 1056539860 heartbeat IPC: 0.35618 cumulative IPC: 0.38338 (Simulation time: 0 hr 13 min 18 sec) 
Heartbeat CPU  0 instructions:  465000001 cycles: 1059165715 heartbeat IPC: 0.38083 cumulative IPC: 0.38337 (Simulation time: 0 hr 13 min 20 sec) 
Heartbeat CPU  0 instructions:  466000000 cycles: 1061884606 heartbeat IPC: 0.36780 cumulative IPC: 0.38333 (Simulation time: 0 hr 13 min 22 sec) 
Heartbeat CPU  0 instructions:  467000003 cycles: 1064590289 heartbeat IPC: 0.36959 cumulative IPC: 0.38329 (Simulation time: 0 hr 13 min 24 sec) 
Heartbeat CPU  0 instructions:  468000000 cycles: 1067229324 heartbeat IPC: 0.37893 cumulative IPC: 0.38328 (Simulation time: 0 hr 13 min 25 sec) 
Heartbeat CPU  0 instructions:  469000002 cycles: 1069806555 heartbeat IPC: 0.38801 cumulative IPC: 0.38329 (Simulation time: 0 hr 13 min 27 sec) 
Heartbeat CPU  0 instructions:  470000000 cycles: 1072508654 heartbeat IPC: 0.37008 cumulative IPC: 0.38325 (Simulation time: 0 hr 13 min 29 sec) 
Heartbeat CPU  0 instructions:  471000000 cycles: 1075097329 heartbeat IPC: 0.38630 cumulative IPC: 0.38326 (Simulation time: 0 hr 13 min 31 sec) 
Heartbeat CPU  0 instructions:  472000000 cycles: 1077763865 heartbeat IPC: 0.37502 cumulative IPC: 0.38324 (Simulation time: 0 hr 13 min 33 sec) 
Heartbeat CPU  0 instructions:  473000001 cycles: 1080689155 heartbeat IPC: 0.34185 cumulative IPC: 0.38311 (Simulation time: 0 hr 13 min 35 sec) 
Heartbeat CPU  0 instructions:  474000000 cycles: 1083305679 heartbeat IPC: 0.38219 cumulative IPC: 0.38311 (Simulation time: 0 hr 13 min 36 sec) 
Heartbeat CPU  0 instructions:  475000000 cycles: 1086123489 heartbeat IPC: 0.35489 cumulative IPC: 0.38303 (Simulation time: 0 hr 13 min 38 sec) 
Heartbeat CPU  0 instructions:  476000000 cycles: 1088940155 heartbeat IPC: 0.35503 cumulative IPC: 0.38295 (Simulation time: 0 hr 13 min 40 sec) 
Heartbeat CPU  0 instructions:  477000003 cycles: 1091670813 heartbeat IPC: 0.36621 cumulative IPC: 0.38290 (Simulation time: 0 hr 13 min 42 sec) 
Heartbeat CPU  0 instructions:  478000001 cycles: 1094330060 heartbeat IPC: 0.37605 cumulative IPC: 0.38289 (Simulation time: 0 hr 13 min 44 sec) 
Heartbeat CPU  0 instructions:  479000001 cycles: 1096931916 heartbeat IPC: 0.38434 cumulative IPC: 0.38289 (Simulation time: 0 hr 13 min 45 sec) 
Heartbeat CPU  0 instructions:  480000000 cycles: 1099788637 heartbeat IPC: 0.35005 cumulative IPC: 0.38279 (Simulation time: 0 hr 13 min 47 sec) 
Heartbeat CPU  0 instructions:  481000000 cycles: 1102463524 heartbeat IPC: 0.37385 cumulative IPC: 0.38277 (Simulation time: 0 hr 13 min 49 sec) 
Heartbeat CPU  0 instructions:  482000000 cycles: 1105091798 heartbeat IPC: 0.38048 cumulative IPC: 0.38276 (Simulation time: 0 hr 13 min 51 sec) 
Heartbeat CPU  0 instructions:  483000000 cycles: 1107653497 heartbeat IPC: 0.39037 cumulative IPC: 0.38278 (Simulation time: 0 hr 13 min 53 sec) 
Heartbeat CPU  0 instructions:  484000000 cycles: 1110346323 heartbeat IPC: 0.37136 cumulative IPC: 0.38275 (Simulation time: 0 hr 13 min 54 sec) 
Heartbeat CPU  0 instructions:  485000000 cycles: 1113002957 heartbeat IPC: 0.37642 cumulative IPC: 0.38274 (Simulation time: 0 hr 13 min 56 sec) 
Heartbeat CPU  0 instructions:  486000000 cycles: 1115611851 heartbeat IPC: 0.38330 cumulative IPC: 0.38274 (Simulation time: 0 hr 13 min 58 sec) 
Heartbeat CPU  0 instructions:  487000003 cycles: 1118414002 heartbeat IPC: 0.35687 cumulative IPC: 0.38267 (Simulation time: 0 hr 14 min 0 sec) 
Heartbeat CPU  0 instructions:  488000000 cycles: 1121215089 heartbeat IPC: 0.35700 cumulative IPC: 0.38260 (Simulation time: 0 hr 14 min 2 sec) 
Heartbeat CPU  0 instructions:  489000000 cycles: 1123926873 heartbeat IPC: 0.36876 cumulative IPC: 0.38256 (Simulation time: 0 hr 14 min 4 sec) 
Heartbeat CPU  0 instructions:  490000003 cycles: 1126690204 heartbeat IPC: 0.36188 cumulative IPC: 0.38250 (Simulation time: 0 hr 14 min 5 sec) 
Heartbeat CPU  0 instructions:  491000001 cycles: 1129413957 heartbeat IPC: 0.36714 cumulative IPC: 0.38246 (Simulation time: 0 hr 14 min 7 sec) 
Heartbeat CPU  0 instructions:  492000000 cycles: 1132192545 heartbeat IPC: 0.35989 cumulative IPC: 0.38240 (Simulation time: 0 hr 14 min 9 sec) 
Heartbeat CPU  0 instructions:  493000000 cycles: 1134877771 heartbeat IPC: 0.37241 cumulative IPC: 0.38237 (Simulation time: 0 hr 14 min 11 sec) 
Heartbeat CPU  0 instructions:  494000000 cycles: 1137517706 heartbeat IPC: 0.37880 cumulative IPC: 0.38237 (Simulation time: 0 hr 14 min 13 sec) 
Heartbeat CPU  0 instructions:  495000001 cycles: 1140356337 heartbeat IPC: 0.35228 cumulative IPC: 0.38228 (Simulation time: 0 hr 14 min 15 sec) 
Heartbeat CPU  0 instructions:  496000000 cycles: 1143114790 heartbeat IPC: 0.36252 cumulative IPC: 0.38223 (Simulation time: 0 hr 14 min 16 sec) 
Heartbeat CPU  0 instructions:  497000001 cycles: 1145888591 heartbeat IPC: 0.36052 cumulative IPC: 0.38217 (Simulation time: 0 hr 14 min 18 sec) 
Heartbeat CPU  0 instructions:  498000000 cycles: 1148660458 heartbeat IPC: 0.36077 cumulative IPC: 0.38212 (Simulation time: 0 hr 14 min 20 sec) 
Heartbeat CPU  0 instructions:  499000002 cycles: 1151397785 heartbeat IPC: 0.36532 cumulative IPC: 0.38207 (Simulation time: 0 hr 14 min 22 sec) 
Heartbeat CPU  0 instructions:  500000000 cycles: 1154091214 heartbeat IPC: 0.37127 cumulative IPC: 0.38204 (Simulation time: 0 hr 14 min 24 sec) 
Heartbeat CPU  0 instructions:  501000000 cycles: 1156815102 heartbeat IPC: 0.36712 cumulative IPC: 0.38200 (Simulation time: 0 hr 14 min 26 sec) 
Heartbeat CPU  0 instructions:  502000000 cycles: 1159598562 heartbeat IPC: 0.35927 cumulative IPC: 0.38194 (Simulation time: 0 hr 14 min 27 sec) 
Heartbeat CPU  0 instructions:  503000002 cycles: 1162423346 heartbeat IPC: 0.35401 cumulative IPC: 0.38187 (Simulation time: 0 hr 14 min 29 sec) 
Heartbeat CPU  0 instructions:  504000000 cycles: 1165255441 heartbeat IPC: 0.35309 cumulative IPC: 0.38179 (Simulation time: 0 hr 14 min 31 sec) 
Heartbeat CPU  0 instructions:  505000001 cycles: 1167875552 heartbeat IPC: 0.38166 cumulative IPC: 0.38179 (Simulation time: 0 hr 14 min 33 sec) 
Heartbeat CPU  0 instructions:  506000001 cycles: 1170699016 heartbeat IPC: 0.35417 cumulative IPC: 0.38172 (Simulation time: 0 hr 14 min 35 sec) 
Heartbeat CPU  0 instructions:  507000001 cycles: 1173532116 heartbeat IPC: 0.35297 cumulative IPC: 0.38164 (Simulation time: 0 hr 14 min 36 sec) 
Heartbeat CPU  0 instructions:  508000000 cycles: 1176274332 heartbeat IPC: 0.36467 cumulative IPC: 0.38160 (Simulation time: 0 hr 14 min 38 sec) 
Heartbeat CPU  0 instructions:  509000001 cycles: 1178844465 heartbeat IPC: 0.38909 cumulative IPC: 0.38162 (Simulation time: 0 hr 14 min 40 sec) 
Heartbeat CPU  0 instructions:  510000003 cycles: 1181581444 heartbeat IPC: 0.36537 cumulative IPC: 0.38158 (Simulation time: 0 hr 14 min 42 sec) 
Heartbeat CPU  0 instructions:  511000001 cycles: 1184023253 heartbeat IPC: 0.40953 cumulative IPC: 0.38164 (Simulation time: 0 hr 14 min 44 sec) 
Heartbeat CPU  0 instructions:  512000000 cycles: 1186774599 heartbeat IPC: 0.36346 cumulative IPC: 0.38159 (Simulation time: 0 hr 14 min 45 sec) 
Heartbeat CPU  0 instructions:  513000001 cycles: 1189481548 heartbeat IPC: 0.36942 cumulative IPC: 0.38156 (Simulation time: 0 hr 14 min 47 sec) 
Heartbeat CPU  0 instructions:  514000002 cycles: 1192178689 heartbeat IPC: 0.37076 cumulative IPC: 0.38154 (Simulation time: 0 hr 14 min 49 sec) 
Heartbeat CPU  0 instructions:  515000001 cycles: 1194711298 heartbeat IPC: 0.39485 cumulative IPC: 0.38157 (Simulation time: 0 hr 14 min 51 sec) 
Heartbeat CPU  0 instructions:  516000000 cycles: 1197214955 heartbeat IPC: 0.39942 cumulative IPC: 0.38161 (Simulation time: 0 hr 14 min 52 sec) 
Heartbeat CPU  0 instructions:  517000002 cycles: 1200042051 heartbeat IPC: 0.35372 cumulative IPC: 0.38154 (Simulation time: 0 hr 14 min 54 sec) 
Heartbeat CPU  0 instructions:  518000001 cycles: 1202855154 heartbeat IPC: 0.35548 cumulative IPC: 0.38147 (Simulation time: 0 hr 14 min 56 sec) 
Heartbeat CPU  0 instructions:  519000001 cycles: 1205565781 heartbeat IPC: 0.36892 cumulative IPC: 0.38144 (Simulation time: 0 hr 14 min 58 sec) 
Heartbeat CPU  0 instructions:  520000000 cycles: 1208373978 heartbeat IPC: 0.35610 cumulative IPC: 0.38137 (Simulation time: 0 hr 15 min 0 sec) 
Heartbeat CPU  0 instructions:  521000000 cycles: 1211032959 heartbeat IPC: 0.37608 cumulative IPC: 0.38136 (Simulation time: 0 hr 15 min 1 sec) 
Heartbeat CPU  0 instructions:  522000000 cycles: 1213689045 heartbeat IPC: 0.37649 cumulative IPC: 0.38135 (Simulation time: 0 hr 15 min 3 sec) 
Heartbeat CPU  0 instructions:  523000002 cycles: 1216165948 heartbeat IPC: 0.40373 cumulative IPC: 0.38140 (Simulation time: 0 hr 15 min 5 sec) 
Heartbeat CPU  0 instructions:  524000000 cycles: 1218946942 heartbeat IPC: 0.35958 cumulative IPC: 0.38134 (Simulation time: 0 hr 15 min 7 sec) 
Heartbeat CPU  0 instructions:  525000000 cycles: 1221535981 heartbeat IPC: 0.38624 cumulative IPC: 0.38136 (Simulation time: 0 hr 15 min 9 sec) 
Heartbeat CPU  0 instructions:  526000000 cycles: 1224127613 heartbeat IPC: 0.38586 cumulative IPC: 0.38137 (Simulation time: 0 hr 15 min 10 sec) 
Heartbeat CPU  0 instructions:  527000000 cycles: 1226438436 heartbeat IPC: 0.43275 cumulative IPC: 0.38147 (Simulation time: 0 hr 15 min 12 sec) 
Heartbeat CPU  0 instructions:  528000000 cycles: 1228918151 heartbeat IPC: 0.40327 cumulative IPC: 0.38152 (Simulation time: 0 hr 15 min 14 sec) 
[...]
Finished CPU 0 instructions: 500000000 cycles: 1312947668 cumulative IPC: 0.38082 (Simulation time: 0 hr 17 min 23 sec) 

ChampSim completed all CPUs

[ROI Statistics]
Core_0_instructions 500000000
Core_0_cycles 1312947668
Core_0_IPC 0.38082

Core_0_branch_prediction_accuracy 85.18932
Core_0_branch_MPKI 24.43069
Core_0_average_ROB_occupancy_at_mispredict 38.24775

Core_0_L1D_total_access 155537732
Core_0_L1D_total_hit 153222098
Core_0_L1D_total_miss 2315634
Core_0_L1D_loads 89640351
Core_0_L1D_load_hit 88810821
Core_0_L1D_load_miss 829530
Core_0_L1D_RFOs 65897381
Core_0_L1D_RFO_hit 64411277
Core_0_L1D_RFO_miss 1486104
Core_0_L1D_prefetches 0
Core_0_L1D_prefetch_hit 0
Core_0_L1D_prefetch_miss 0
Core_0_L1D_writebacks 0
Core_0_L1D_writeback_hit 0
Core_0_L1D_writeback_miss 0
Core_0_L1D_prefetch_requested 0
Core_0_L1D_prefetch_dropped 0
Core_0_L1D_prefetch_issued 0
Core_0_L1D_prefetch_filled 0
Core_0_L1D_prefetch_useful 0
Core_0_L1D_prefetch_useless 0
Core_0_L1D_prefetch_late 0
Core_0_L1D_average_miss_latency 218.39998

Core_0_L1D_rq_access 125890444
Core_0_L1D_rq_forward 0
Core_0_L1D_rq_merged 36157580
Core_0_L1D_rq_to_cache 89732245
Core_0_L1D_rq_full 0

Core_0_L1D_wq_access 70505122
Core_0_L1D_wq_forward 619
Core_0_L1D_wq_merged 423341
Core_0_L1D_wq_to_cache 70081781
Core_0_L1D_wq_full 19239094

Core_0_L1D_pq_access 0
Core_0_L1D_pq_forward 0
Core_0_L1D_pq_merged 0
Core_0_L1D_pq_to_cache 0
Core_0_L1D_pq_full 0

Core_0_L1D_acc_epochs 1384502
Core_0_L1D_acc_level_0 1384502
Core_0_L1D_acc_level_1 0
Core_0_L1D_acc_level_2 0
Core_0_L1D_acc_level_3 0
Core_0_L1D_acc_level_4 0
Core_0_L1D_acc_level_5 0
Core_0_L1D_acc_level_6 0
Core_0_L1D_acc_level_7 0
Core_0_L1D_acc_level_8 0
Core_0_L1D_acc_level_9 0

Core_0_L1I_total_access 100106678
Core_0_L1I_total_hit 98161744
Core_0_L1I_total_miss 1944934
Core_0_L1I_loads 100106678
Core_0_L1I_load_hit 98161744
Core_0_L1I_load_miss 1944934
Core_0_L1I_RFOs 0
Core_0_L1I_RFO_hit 0
Core_0_L1I_RFO_miss 0
Core_0_L1I_prefetches 0
Core_0_L1I_prefetch_hit 0
Core_0_L1I_prefetch_miss 0
Core_0_L1I_writebacks 0
Core_0_L1I_writeback_hit 0
Core_0_L1I_writeback_miss 0
Core_0_L1I_prefetch_requested 0
Core_0_L1I_prefetch_dropped 0
Core_0_L1I_prefetch_issued 0
Core_0_L1I_prefetch_filled 0
Core_0_L1I_prefetch_useful 0
Core_0_L1I_prefetch_useless 0
Core_0_L1I_prefetch_late 0
Core_0_L1I_average_miss_latency 12.84129

Core_0_L1I_rq_access 499999934
Core_0_L1I_rq_forward 0
Core_0_L1I_rq_merged 399177609
Core_0_L1I_rq_to_cache 100822325
Core_0_L1I_rq_full 0

Core_0_L1I_wq_access 0
Core_0_L1I_wq_forward 0
Core_0_L1I_wq_merged 0
Core_0_L1I_wq_to_cache 0
Core_0_L1I_wq_full 0

Core_0_L1I_pq_access 0
Core_0_L1I_pq_forward 0
Core_0_L1I_pq_merged 0
Core_0_L1I_pq_to_cache 0
Core_0_L1I_pq_full 0

Core_0_L1I_acc_epochs 1384502
Core_0_L1I_acc_level_0 1384502
Core_0_L1I_acc_level_1 0
Core_0_L1I_acc_level_2 0
Core_0_L1I_acc_level_3 0
Core_0_L1I_acc_level_4 0
Core_0_L1I_acc_level_5 0
Core_0_L1I_acc_level_6 0
Core_0_L1I_acc_level_7 0
Core_0_L1I_acc_level_8 0
Core_0_L1I_acc_level_9 0

Core_0_L2C_total_access 6065438
Core_0_L2C_total_hit 4704042
Core_0_L2C_total_miss 1361396
Core_0_L2C_loads 2774443
Core_0_L2C_load_hit 2330424
Core_0_L2C_load_miss 444019
Core_0_L2C_RFOs 1486059
Core_0_L2C_RFO_hit 609308
Core_0_L2C_RFO_miss 876751
Core_0_L2C_prefetches 50751
Core_0_L2C_prefetch_hit 12324
Core_0_L2C_prefetch_miss 38427
Core_0_L2C_writebacks 1754185
Core_0_L2C_writeback_hit 1751986
Core_0_L2C_writeback_miss 2199
Core_0_L2C_prefetch_requested 322065
Core_0_L2C_prefetch_dropped 0
Core_0_L2C_prefetch_issued 322065
Core_0_L2C_prefetch_filled 45193
Core_0_L2C_prefetch_useful 16274
Core_0_L2C_prefetch_useless 28919
Core_0_L2C_prefetch_late 1655
Core_0_L2C_average_miss_latency 353.10556

Core_0_L2C_rq_access 4260568
Core_0_L2C_rq_forward 0
Core_0_L2C_rq_merged 0
Core_0_L2C_rq_to_cache 4260502
Core_0_L2C_rq_full 0

Core_0_L2C_wq_access 1754185
Core_0_L2C_wq_forward 66
Core_0_L2C_wq_merged 0
Core_0_L2C_wq_to_cache 1754185
Core_0_L2C_wq_full 0

Core_0_L2C_pq_access 322065
Core_0_L2C_pq_forward 0
Core_0_L2C_pq_merged 920
Core_0_L2C_pq_to_cache 321145
Core_0_L2C_pq_full 0

Core_0_L2C_acc_epochs 1384502
Core_0_L2C_acc_level_0 1372824
Core_0_L2C_acc_level_1 4363
Core_0_L2C_acc_level_2 3352
Core_0_L2C_acc_level_3 505
Core_0_L2C_acc_level_4 160
Core_0_L2C_acc_level_5 2230
Core_0_L2C_acc_level_6 196
Core_0_L2C_acc_level_7 195
Core_0_L2C_acc_level_8 120
Core_0_L2C_acc_level_9 557

Core_0_LLC_total_access 2555839
Core_0_LLC_total_hit 885762
Core_0_LLC_total_miss 1670077
Core_0_LLC_loads 442369
Core_0_LLC_load_hit 364545
Core_0_LLC_load_miss 77824
Core_0_LLC_RFOs 876748
Core_0_LLC_RFO_hit 124581
Core_0_LLC_RFO_miss 752167
Core_0_LLC_prefetches 211324
Core_0_LLC_prefetch_hit 45693
Core_0_LLC_prefetch_miss 165631
Core_0_LLC_writebacks 1025398
Core_0_LLC_writeback_hit 350943
Core_0_LLC_writeback_miss 674455
Core_0_LLC_prefetch_requested 0
Core_0_LLC_prefetch_dropped 0
Core_0_LLC_prefetch_issued 0
Core_0_LLC_prefetch_filled 246931
Core_0_LLC_prefetch_useful 65072
Core_0_LLC_prefetch_useless 175770
Core_0_LLC_prefetch_late 708
Core_0_LLC_average_miss_latency 280.75821

Core_0_LLC_rq_access 1319119
Core_0_LLC_rq_forward 0
Core_0_LLC_rq_merged 0
Core_0_LLC_rq_to_cache 1319117
Core_0_LLC_rq_full 0

Core_0_LLC_wq_access 1025398
Core_0_LLC_wq_forward 2
Core_0_LLC_wq_merged 0
Core_0_LLC_wq_to_cache 1025398
Core_0_LLC_wq_full 0

Core_0_LLC_pq_access 302892
Core_0_LLC_pq_forward 0
Core_0_LLC_pq_merged 168
Core_0_LLC_pq_to_cache 302724
Core_0_LLC_pq_full 0

Core_0_LLC_acc_epochs 1386756
Core_0_LLC_acc_level_0 1325176
Core_0_LLC_acc_level_1 26064
Core_0_LLC_acc_level_2 18049
Core_0_LLC_acc_level_3 1365
Core_0_LLC_acc_level_4 164
Core_0_LLC_acc_level_5 13465
Core_0_LLC_acc_level_6 182
Core_0_LLC_acc_level_7 348
Core_0_LLC_acc_level_8 69
Core_0_LLC_acc_level_9 1874

Core_0_major_page_fault 0
Core_0_minor_page_fault 6639

[MLOP] History of tracked zone:
IIIIIIIIIIIIIIIIIIIIIIIIIIIIIIIIIIIIIIIIIIIIIIIIIIIIIIIIIIIIIIII
IIIIIIIIIIIIIIIIIIIIIIIIIIIIIIIIIIIIIIIIIIIIIIIIAII2II4I44I4II4I
IIIIIIIIIIIIIIIIIIIIIIIIIIIIIIIIIIIIIIIIIIIIIIIIAII2II4I44IAII2I
IIIIIIIIIIIIIIIIIIIIIIIIIIIIIIIIIIIIIIIIIIIIIIIIAII2II4I44IAIA2I
IIIIIIIIIIIIIIIIIIIIIIIIIIIIIIIIIIIIIIIIIIIIIIIIAII2II4I44IAAA22
IIIIIIIIIIIIIIIIIIIIIIIIIIIIIIIIIIIIIIIIIIIIIIIIAII2II4I44AAAA22
IIIIIIIIIIIIIIIIIIIIIIIIIIIIIIIIIIIIIIIIIIIIIIIIAII2A44444AAAA22
IIIIIIIIIIIIIIIIIIIIIIIIIIIIIIIIIIIIIIIIIIIIIIIIA4I2A44444AAAA22
IIIIIIIIIIIIIIIIIIIIIIIIIIIIIIIIIIIIIIIIIIIIIIIIA4I2A4A444AAAA22
IIIIIIIIIIIIIIIIIIIIIIIIIIIIIIIIIIIIIIIIIIIIIIIIA4I2A4AA44AAAA22
IIIIIIIIIIIIIIIIIIIIIIIIIIIIIIIIIIIIIIIIIIIIIIIIA4I2A4AAA4AAAA22
IIIIIIIIIIIIIIIIIIIIIIIIIIIIIIIIIIIIIIIIIIIIIIIIA4I2A2AAA4AAAA22
IIIIIIIIIIIIIIIIIIIIIIIIIIIIIIIIIIIIIIIIIIIIIIIIA4I2A2AAA4AAAI22
IIIIIIIIIIIIIIIIIIIIIIIIIIIIIIIIIIIIIIIIIIIIIIIIA4I2A2AAA4AAAA22
IIIIIIIIIIIIIIIIIIIIIIIIIIIIIIIIIIIIIIIIIIIIIIIIA4I2A2AAA4AAAAI2
IIIIIIIIIIIIIIIIIIIIIIIIIIIIIIIIIIIIIIIIIIIIIIIIA4I2AAAAA4AAAA42
IIIIIIIIIIIIIIIIIIIIIIIIIIIIIIIIIIIIIIIIIIIIIIIIA4I2AAAAA4AAAA4I
IIIIIIIIIIIIIIIIIIIIIIIIIIIIIIIIIIIIIIIIIIIIIIIIA4I2AAAAA4AAAA44
IIIIIIIIIIIIIIIIIIIIIIIIIIIIIIIIIIIIIIIIIIIIIIIIA4IAAAAAA4AAAA44
IIIIIIIIIIIIIIIIIIIIIIIIIIIIIIIIIIIIIIIIIIIIIIIIA4IAAAAAA4AAAA24
IIIIIIIIIIIIIIIIIIIIIIIIIIIIIIIIIIIIIIIIIIIIIIIIA4IAAAAAA2AAAA24
IIIIIIIIIIIIIIIIIIIIIIIIIIIIIIIIIIIIIIIIIIIIIIIIA4IAAAAAA2AAAAA2
IIIIIIIIIIIIIIIIIIIIIIIIIIIIIIIIIIIIIIIIIIIIIIIIA4IAAAAAA2AAAAAA
IIIIIIIIIIIIIIIIIIIIIIIIIIIIIIIIIIIIIIIIIIIIIIIIA44AAAAAA2AAAAAA
IIIIIIIIIIIIIIIIIIIIIIIIIIIIIIIIIIIIIIIIIIIIIIIIA44AAAAAA2AIAAAA
IIIIIIIIIIIIIIIIIIIIIIIIIIIIIIIIIIIIIIIIIIIIIIIIA44AAAAAA2AIAIAA
IIIIIIIIIIIIIIIIIIIIIIIIIIIIIIIIIIIIIIIIIIIIIIIIA44AAAAAA2IIAIAA
IIIIIIIIIIIIIIIIIIIIIIIIIIIIIIIIIIIIIIIIIIIIIIIII44AAAAAA2IIAIAA
IIIIIIIIIIIIIIIIIIIIIIIIIIIIIIIIIIIIIIIIIIIIIIIII44AAAAAA2IIAIIA
IIIIIIIIIIIIIIIIIIIIIIIIIIIIIIIIIIIIIIIIIIIIIIIIA44AAAAAA244AIIA
IIIIIIIIIIIIIIIIIIIIIIIIIIIIIIIIIIIIIIIIIIIIIIIIA44AAAAAA244AIAA
IIIIIIIIIIIIIIIIIIIIIIIIIIIIIIIIIIIIIIIIIIIIIIIIA44AAAAAA244A4AA
IIIIIIIIIIIIIIIIIIIIIIIIIIIIIIIIIIIIIIIIIIIIIIIIA44AAAAAA2A4A4AA
IIIIIIIIIIIIIIIIIIIIIIIIIIIIIIIIIIIIIIIIIIIIIIIIA44AAAAAA2AAA4AA
IIIIIIIIIIIIIIIIIIIIIIIIIIIIIIIIIIIIIIIIIIIIIIIIA44AAAAAA2AAAAAA
IIIIIIIIIIIIIIIIIIIIIIIIIIIIIIIIIIIIIIIIIIIIIIIIA44AAAAAAAAAAAAA
IIIIIIIIIIIIIIIIIIIIIIIIIIIIIIIIIIII4III44III4I4A44AAAAAAAAAAAAA
IIIIIIIIIIIIIIIIIIIIIIIIIIIIIIIIIIII44II444II444A44AAAAAAAAAAAAA
IIIIIIIIIIIIIIIIIIIIIIIIII4III44III444II44444444A44AAAAAAAAAAAAA
IIIIIIIIIIIIIIIIIIIIIIIIII44II444II4444I44444444A44AAAAAAAAAAAAA
IIIIIIIIIIIIIIIIIIIIIIIIII444I4444I4444444444444A44AAAAAAAAAAAAA
IIIIIIIIIIIIIIIIIIIIIIIIII4444444444444444444444A44AAAAAAAAAAAAA
IIIIIIIIIIIIIIIIIIIIIIIIII4444444444444444444444A4IAAAAAAAAAAAAA
IIIIIIIIIIIIIIIIIIIIIIIIII4444444444444444444444A44AAAAAAAAAAAAA
IIIIIIIIIIIIIIIIIIIIII4III4444444444444444444444A24AAAAAAAAAAAAA
IIIIIIIIIIIIIIIIIIIIII4II44444444444444444444444A24AAAAAAAAAAAAA
IIIIIIIIIIIIIIIIIIIIII4II44444444444444444444444A24AAAAAIAAAAAAA
IIIIIIIIIIIIIIIIIIIIII4II44444444444444444444444I24AAAAAIAAAAAAA
IIIIIIIIIIIIIIIIIIIIII4II44444444444444444444444I24AAAAA4AAAAAAA
IIIIIIIIIIIIIIIIIIIIII4II44444444444444444444444I24AAAAAAAAAAAAA
IIIIIIIIIIIIIIIIIIIIII4II44444444444444444444444A24AAAAAAAAAAAAA
IIIIIIIIIIIIIIIIIIIIII4II44444444444444444444444A2AAAAAAAAAAAAAA
IIIIIIIIIIIIIIIIIIIIII4II44444444444444444444444A2AAIAAAAAAAAAAA
IIIIIIIIIIIIIIIIIIIIII4II44444444444444444444444A2AAIAAAIAAAAAAA
IIIIIIIIIIIIIIIIIIIIII4II44444444444444444444444A2AAAAAAIAAAAAAA
IIIIIIIIIIIIIIIIIIIIII4II44444444444444444444444A2AAAAAA2AAAAAAA
IIIIIIIIIIIIIIIIIIIIII4II44444444444444444444444A2AAAAAAIAAAAAAA
IIIIIIIIIIIIIIIIIIIIII4II44444444444444444444444A2AAAAAA4AAAAAAA
IIIIIIIIIIIIIIIIIIIIII4II44444444444444444444444A2AAAAAAAAAAAAAA
IIIIIIIIIIIIIIIIIIIIII4II44444444444444444444444A2AAAAAAAAAAAAIA
IIIIIIIIIIIIIIIIIIIIII4II44444444444444444444444A2AAAAAAAAAAAA4A
IIIIIIIIIIIIIIIIIIIIII4II44444444444444444444444I2AAAAAAAAAAAA4A
IIIIIIIIIIIIIIIIIIIIII4II44444444444444444444444I2AIAAAAAAAAAA4A
IIIIIIIIIIIIIIIIIIIIII4II44444444444444444444444I2AIAAAAAAIAAA4A
IIIIIIIIIIIIIIIIIIIIII4II44444444444444444444444I2AIAAAAAA4AAA4A
IIIIIIIIIIIIIIIIIIIIII4II4444444444444444444444442AIAAAAAA4AAA4A
IIIIIIIIIIIIIIIIIIIIII4II4444444444444444444444442AAAAAAAA4AAA4A
IIIIIIIIIIIIIIIIIIIIII4II4444444444444444444444442AAAAAAAAAAAA4A
IIIIIIIIIIIIIIIIIIIIII4II44444444444444444444444A2AAAAAAAAAAAA4A
IIIIIIIIIIIIIIIIIIIIII4II44444444444444444444444A2AAAAAAAAAAAAAA
IIIIIIIIIIIIIIIIIIIIII4II44444444444444444444444A2AIAAAAAAAAAAAA
IIIIIIIIIIIIIIIIIIIIII4II44444444444444444444444A2A2AAAAAAAAAAAA
IIIIIIIIIIIIIIIIIIIIII4II44444444444444444444444A2AAAAAAAAAAAAAA
IIIIIIIIIIIIIIIIIIIIII4II44444444444444444444444A2AAAAIAAAAAAAAA
IIIIIIIIIIIIIIIIIIIIII4II44444444444444444444444A2AAAAIIAAAAAAAA
IIIIIIIIIIIIIIIIIIIIII4II44444444444444444444444A2AAIAIIAAAAAAAA
IIIIIIIIIIIIIIIIIIIIII4II44444444444444444444444A2AAIAIIAAAAAIAA
IIIIIIIIIIIIIIIIIIIIII4II44444444444444444444444A2AAIIIIAAAAAIAA
IIIIIIIIIIIIIIIIIIIIII4II44444444444444444444444A2AAIIIIAAAAA4AA
IIIIIIIIIIIIIIIIIIIIII4II44444444444444444444444A2AAIA4IAAAAA4AA
IIIIIIIIIIIIIIIIIIIIII4II44444444444444444444444A2AAIA4AAAAAA4AA
IIIIIIIIIIIIIIIIIIIIII4II44444444444444444444444A2AAIA4AAAAAAAAA
IIIIIIIIIIIIIIIIIIIIII4II44444444444444444444444A2AAAA4AAAAAAAAA
IIIIIIIIIIIIIIIIIIIIII4II44444444444444444444444A2AAAAAAAAAAAAAA
IIIIIIIIIIIIIIIIIIIIII4II44444444444444444444444A2AAAAAAAAAAAAIA
IIIIIIIIIIIIIIIIIIIIII4II44444444444444444444444A2AAAAAAAAAAAA2A
IIIIIIIIIIIIIIIIIIIIII4II44444444444444444444444A2IAAAAAAAAAAA2A
IIIIIIIIIIIIIIIIIIIIII4II44444444444444444444444I2IAAAAAAAAAAA2A
IIIIIIIIIIIIIIIIIIIIII4II44444444444444444444444I2IAAAAAAAAAAAAA
IIIIIIIIIIIIIIIIIIIIII4II44444444444444444444444A2IAAAAAAAAAAAAA
IIIIIIIIIIIIIIIIIIIIII4II44444444444444444444444A24AAAAAAAAAAAAA
IIIIIIIIIIIIIIIIIIIIII4II44444444444444444444444A24AAAIAAAAAAAAA
IIIIIIIIIIIIIIIIIIIIII4II44444444444444444444444A24AAAIAAAAAIAAA
IIIIIIIIIIIIIIIIIIIIII4II44444444444444444444444A24AAIIAAAAAIAAA
IIIIIIIIIIIIIIIIIIIIII4II44444444444444444444444A24AA22AAAAA2AAA
IIIIIIIIIIIIIIIIIIIIII4II44444444444444444444444A24AA22IAAAA2AAA
IIIIIIIIIIIIIIIIIIIIII4II44444444444444444444444A24AA22IAIAA2AAA
IIIIIIIIIIIIIIIIIIIIII4II44444444444444444444444A24AA22IAIIA2AAA
IIIIIIIIIIIIIIIIIIIIII4II44444444444444444444444A24AA222A22A2AAA
IIIIIIIIIIIIIIIIIIIIII4II44444444444444444444444A24AAA22A22A2AAA
IIIIIIIIIIIIIIIIIIIIII4II44444444444444444444444A24AAA22I22A2AAA
IIIIIIIIIIIIIIIIIIIIII4II44444444444444444444444A24AAAI2I22A2AAA
IIIIIIIIIIIIIIIIIIIIII4II44444444444444444444444A24AAA22222A2AAA
IIIIIIIIIIIIIIIIIIIIII4II44444444444444444444444A24AAA22222A2IAA
IIIIIIIIIIIIIIIIIIIIII4II44444444444444444444444A24AAA22222A22AA
IIIIIIIIIIIIIIIIIIIIII4II44444444444444444444444A24AAA2I222A22AA
IIIIIIIIIIIIIIIIIIIIII4II44444444444444444444444A24AAA22222A22AA
IIIIIIIIIIIIIIIIIIIIII4II44444444444444444444444A24AAA22222AA2AA
IIIIIIIIIIIIIIIIIIIIII4II44444444444444444444444A24AAA22222AAAAA
IIIIIIIIIIIIIIIIIIIIII4II44444444444444444444444A24AAA222A2AAAAA
IIIIIIIIIIIIIIIIIIIIII4II44444444444444444444444A22AAA222A2AAAAA
IIIIIIIIIIIIIIIIIIIIII4II44444444444444444444444A22AAA2A2A2AAAAA
IIIIIIIIIIIIIIIIIIIIII4II44444444444444444444444A22AAA2AAA2AAAAA
IIIIIIIIIIIIIIIIIIIIII4II44444444444444444444444A22AAA2AAAAAAAAA
IIIIIIIIIIIIIIIIIIIIII4II44444444444444444444444A22AAAAAAAAAAAAA
IIIIIIIIIIIIIIIIIIIIII4II44444444444444444444444A22AAAAAAAAAAIAA
IIIIIIIIIIIIIIIIIIIIII4II44444444444444444444444A22AAAAAAAAAA2AA
IIIIIIIIIIIIIIIIIIIIII4II44444444444444444444444A22AAAAAAAAAAAAA
IIIIIIIIIIIIIIIIIIIIII4II44444444444444444444444A22AAAAAAAAAAIAA
IIIIIIIIIIIIIIIIIIIIII4II44444444444444444444444A22AAAAAAIAAAIAA
IIIIIIIIIIIIIIIIIIIIII4II44444444444444444444444A22AAAAAAIAAIIAA
IIIIIIIIIIIIIIIIIIIIII4II44444444444444444444444A2IAAAAAAIAAIIAA
IIIIIIIIIIIIIIIIIIIIII4II44444444444444444444444A2IAAAAAAIAAI4AA
IIIIIIIIIIIIIIIIIIIIII4II44444444444444444444444A2IAAAAAA4AAI4AA
IIIIIIIIIIIIIIIIIIIIII4II44444444444444444444444A2IAAAAAA4AA44AA
IIIIIIIIIIIIIIIIIIIIII4II44444444444444444444444A2IAAAAAAAAA44AA
IIIIIIIIIIIIIIIIIIIIII4II44444444444444444444444A2IAAAAAAAAA4AAA
IIIIIIIIIIIIIIIIIIIIII4II44444444444444444444444A2IAAAAAAAAAAAAA
IIIIIIIIIIIIIIIIIIIIII4II44444444444444444444444A24AAAAAAAAAAAAA
IIIIIIIIIIIIIIIIIIIIII4II44444444444444444444444A24AAAAAAIAAAAAA
IIIIIIIIIIIIIIIIIIIIII4II44444444444444444444444A24AAAAAA4AAAAAA
IIIIIIIIIIIIIIIIIIIIII4II44444444444444444444444A24AAAAAAAAAAAAA
IIIIIIIIIIIIIIIIIIIIII4II44444444444444444444444A2AAAAAAAAAAAAAA
IIIIIIIIIIIIIIIIIIIIII4II44444444444444444444444A2AAAAAAAAAAAAIA
IIIIIIIIIIIIIIIIIIIIII4II44444444444444444444444I2AAAAAAAAAAAAIA
IIIIIIIIIIIIIIIIIIIIII4II44444444444444444444444I2AAAAAAAAAAAAII
IIIIIIIIIIIIIIIIIIIIII4II44444444444444444444444I2AAAAAAAAAAIAII
IIIIIIIIIIIIIIIIIIIIII4II44444444444444444444444I2AIAAAAAAAAIAII
IIIIIIIIIIIIIIIIIIIIII4II4444444444444444444444442AAAAAAAAAAIAI4
IIIIIIIIIIIIIIIIIIIIII4II4444444444444444444444442AAAAAAAAAAIA44
IIIIIIIIIIIIIIIIIIIIII4II4444444444444444444444442AAAAAAAAAA4A44
IIIIIIIIIIIIIIIIIIIIII4II44444444444444444444444A2AAAAAAAAAA4A44
IIIIIIIIIIIIIIIIIIIIII4II44444444444444444444444A2AAAAAAAAAA2A44
IIIIIIIIIIIIIIIIIIIIII4II44444444444444444444444A2AAAAAAAAAA2A22
IIIIIIIIIIIIIIIIIIIIII4II44444444444444444444444A2AAAAAAAAAAAA22
IIIIIIIIIIIIIIIIIIIIII4II44444444444444444444444A2AAAAAAAAAAAAA2
IIIIIIIIIIIIIIIIIIIIII4II44444444444444444444444A2AAAAAAAAAAAAAA
IIIIIIIIIIIIIIIIIIIIII4II44444444444444444444444I2AAAAAAAAAAAAAA
IIIIIIIIIIIIIIIIIIIIII4II44444444444444444444444A2AAAAAAAAAAAAAA
IIIIIIIIIIIIIIIIIIIIII4II44444444444444444444444A2AAAAAAAAAAAAIA
IIIIIIIIIIIIIIIIIIIIII4II44444444444444444444444A2AAAAAAAAAAAA4A
IIIIIIIIIIIIIIIIIIIIII4II44444444444444444444444A2AAAAAAAAAAAA2A
IIIIIIIIIIIIIIIIIIIIII4II44444444444444444444444A2AAAAAAAAAAAAAA
IIIIIIIIIIIIIIIIIIIIII4II44444444444444444444444A2AAAAIAAAAAAAAA
IIIIIIIIIIIIIIIIIIIIII4II44444444444444444444444A2AAAA2AAAAAAAAA
IIIIIIIIIIIIIIIIIIIIII4II44444444444444444444444A2AAAAAAAAAAAAAA
IIIIIIIIIIIIIIIIIIIIII4II44444444444444444444444A2AAAAAAAAAAAAAI
IIIIIIIIIIIIIIIIIIIIII4II44444444444444444444444A2AAAAAAAAAIAAAI
IIIIIIIIIIIIIIIIIIIIII4II44444444444444444444444A2AAAAAAAAA2AAA4
IIIIIIIIIIIIIIIIIIIIII4II44444444444444444444444A2AAAAAAAAA2AAA2
IIIIIIIIIIIIIIIIIIIIII4II44444444444444444444444A2AAAAAAAAAAAAA2
IIIIIIIIIIIIIIIIIIIIII4II44444444444444444444444A2AAAAIAAAAAAAA2
IIIIIIIIIIIIIIIIIIIIII4II44444444444444444444444A2AAAA4AAAAAAAA2
IIIIIIIIIIIIIIIIIIIIII4II44444444444444444444444A2AAAA4AAAAAAAAA
IIIIIIIIIIIIIIIIIIIIII4II44444444444444444444444A2AAAAAAAAAAAAAA
IIIIIIIIIIIIIIIIIIIIII4II44444444444444444444444A2AAAAIAAAAAAAAA
IIIIIIIIIIIIIIIIIIIIII4II44444444444444444444444A2AAAA2AAAAAAAAA
IIIIIIIIIIIIIIIIIIIIII4II44444444444444444444444A2AAAAAAAAAAAAAA
IIIIIIIIIIIIIIIIIIIIII4II44444444444444444444444A2AAAAAAAAAAAAIA
IIIIIIIIIIIIIIIIIIIIII4II44444444444444444444444A2AAAAAAAAAAAA2A
IIIIIIIIIIIIIIIIIIIIII4II44444444444444444444444A2AAAAIAAAAAAA2A
IIIIIIIIIIIIIIIIIIIIII4II44444444444444444444444A2AAAA2AAAAAAA2A
IIIIIIIIIIIIIIIIIIIIII4II44444444444444444444444A2AAAAAAAAAAAA2A
IIIIIIIIIIIIIIIIIIIIII4II44444444444444444444444A2AAAAAAAAAAAAIA
IIIIIIIIIIIIIIIIIIIIII4II44444444444444444444444A2AAAAAAAAAAAA4A
IIIIIIIIIIIIIIIIIIIIII4II44444444444444444444444A2AAAAAAAAAAAA2A
IIIIIIIIIIIIIIIIIIIIII4II44444444444444444444444A2AAAAAAAAAAAAAA
IIIIIIIIIIIIIIIIIIIIII4II44444444444444444444444A2AAAAAAIAAAAAAA
IIIIIIIIIIIIIIIIIIIIII4II44444444444444444444444A2AAAAAAAAAAAAAA
IIIIIIIIIIIIIIIIIIIIII4II44444444444444444444444A2IAAAAAAAAAAAAA
IIIIIIIIIIIIIIIIIIIIII4II44444444444444444444444A2AAAAAAAAAAAAAA
IIIIIIIIIIIIIIIIIIIIII4II44444444444444444444444A2AIAAAAAAAAAAAA
IIIIIIIIIIIIIIIIIIIIII4II44444444444444444444444A2A2AAAAAAAAAAAA
IIIIIIIIIIIIIIIIIIIIII4II44444444444444444444444A2AAAAAAAAAAAAAA
IIIIIIIIIIIIIIIIIIIIII4II44444444444444444444444A2AAAAAAAAIAAAAA
IIIIIIIIIIIIIIIIIIIIII4II44444444444444444444444A2AAAAAAAA2AAAAA
IIIIIIIIIIIIIIIIIIIIII4II44444444444444444444444A2AAAAAAAAAAAAAA
IIIIIIIIIIIIIIIIIIIIII4II44444444444444444444444A2AAAAAAAAAAAAIA
IIIIIIIIIIIIIIIIIIIIII4II44444444444444444444444A2AAAAAAAAAAAA4A
IIIIIIIIIIIIIIIIIIIIII4II44444444444444444444444A2AAAAAAAAAAAA2A
IIIIIIIIIIIIIIIIIIIIII4II44444444444444444444444A2AAAAAAAAAAAA2I
IIIIIIIIIIIIIIIIIIIIII4II44444444444444444444444A2AAAAAAAAAAAA24
IIIIIIIIIIIIIIIIIIIIII4II44444444444444444444444A2AAAAAAAAAAAA22
IIIIIIIIIIIIIIIIIIIIII4II44444444444444444444444A2AAAAAAAAAAAAA2
IIIIIIIIIIIIIIIIIIIIII4II44444444444444444444444A2AAAAAAAAAAAAAA
IIIIIIIIIIIIIIIIIIIIII4II44444444444444444444444A2IAAAAAAAAAAAAA
IIIIIIIIIIIIIIIIIIIIII4II44444444444444444444444A2AAAAAAAAAAAAAA
IIIIIIIIIIIIIIIIIIIIII4II44444444444444444444444A2AAAAIAAAAAAAAA
IIIIIIIIIIIIIIIIIIIIII4II44444444444444444444444A2AAAA2AAAAAAAAA
IIIIIIIIIIIIIIIIIIIIII4II44444444444444444444444A2AAAAAAAAAAAAAA
IIIIIIIIIIIIIIIIIIIIII4II44444444444444444444444A2AAAAAAAAAAIAAA
IIIIIIIIIIIIIIIIIIIIII4II44444444444444444444444A2AAAAAAAAAA4AAA
IIIIIIIIIIIIIIIIIIIIII4II44444444444444444444444A2AAAAAAAAAA2AAA
IIIIIIIIIIIIIIIIIIIIII4II44444444444444444444444A2AAAAAAAAAA2AIA
IIIIIIIIIIIIIIIIIIIIII4II44444444444444444444444A2AAAAAAAAAA2A4A
IIIIIIIIIIIIIIIIIIIIII4II44444444444444444444444A2AAAAAAAAAA2A2A
IIIIIIIIIIIIIIIIIIIIII4II44444444444444444444444A2AAAAAAAAAAAA2A
IIIIIIIIIIIIIIIIIIIIII4II44444444444444444444444A2AAAAAAAAAAAAAA
[MLOP] Prefetch Degree Mean: 6.80000
[MLOP] Prefetch Degree SD: 3.25840
[MLOP] Max Score Left Mean (%): 31.85968
[MLOP] Max Score Left SD (%): 13.43439
[MLOP] Max Score Right Mean (%): 59.88571
[MLOP] Max Score Right SD (%): 16.50570

Channel_0_RQ_row_buffer_hit 312057
Channel_0_RQ_row_buffer_miss 683564
Channel_0_WQ_row_buffer_hit 290208
Channel_0_WQ_row_buffer_miss 567466
Channel_0_WQ_full 1332198
Channel_0_dbus_congested 893111

avg_congested_cycle 4

DRAM_bw_pochs 5547023
DRAM_bw_level_0 5478760
DRAM_bw_level_1 62043
DRAM_bw_level_2 3020
DRAM_bw_level_3 3200
