*************************************************
   ChampSim Multicore Out-of-Order Simulator
   Last compiled: Dec 11 2024 17:59:53
*************************************************
parsing config file: /home/functionmain/桌面/Pythia/config/mlop.ini

trace_0 /home/functionmain/桌面/Pythia/traces/445.gobmk-30B.champsimtrace.xz
adding L2C_PREFETCHER: MLOP
Initialize SHIP state
warmup_instructions 100000000
simulation_instructions 500000000
champsim_seed 165
measure_ipc 0
measure_ipc_epoch 1000
measure_dram_bw 1
measure_dram_bw_epoch 256
measure_cache_acc 1
measure_cache_acc_epoch 1024
l1d_perfect 0
l2c_perfect 0
llc_perfect 0
l1d_semi_perfect 0
l2c_semi_perfect 0
llc_semi_perfect 0
semi_perfect_cache_page_buffer_size 64

num_cpus 1
cpu_freq 4000
dram_io_freq 2400
page_size 4096
block_size 64
max_read_per_cycle 8
max_fill_per_cycle 1
dram_channels 1
log2_dram_channels 0
dram_ranks 1
dram_banks 8
dram_rows 65536
dram_columns 128
dram_row_size 8
dram_size 4096
dram_pages 1048576

fetch_width 6
decode_width 6
exec_width 4
lq_width 2
sq_width 2
retire_width 4
scheduler_size 128
branch_mispredict_penalty 20
rob_size 256
lq_size 72
sq_size 56
num_instr_destinations_sparc 4
num_instr_destinations 2
num_instr_sources 4

itlb_set 16
itlb_way 8
itlb_rq_size 16
itlb_wq_size 16
itlb_pq_size 0
itlb_mshr_size 8
itlb_latency 1

dtlb_set 16
dtlb_way 4
dtlb_rq_size 16
dtlb_wq_size 16
dtlb_pq_size 0
dtlb_mshr_size 8
dtlb_latency 1

stlb_set 128
stlb_way 12
stlb_rq_size 32
stlb_wq_size 32
stlb_pq_size 0
stlb_mshr_size 16
stlb_latency 8

l1i_size 32
l1i_set 64
l1i_way 8
l1i_rq_size 64
l1i_wq_size 64
l1i_pq_size 8
l1i_mshr_size 8
l1i_latency 1

l1d_size 32
l1d_set 64
l1d_way 8
l1d_rq_size 64
l1d_wq_size 64
l1d_pq_size 8
l1d_mshr_size 16
l1d_latency 4

l2c_size 256
l2c_set 512
l2c_way 8
l2c_rq_size 32
l2c_wq_size 32
l2c_pq_size 32
l2c_mshr_size 32
l2c_latency 10

llc_size 2048
llc_set 2048
llc_way 16
llc_rq_size 32
llc_wq_size 32
llc_pq_size 32
llc_mshr_size 64
llc_latency 20

dram_channel_width 8
dram_wq_size 64
dram_rq_size 64
tRP 15
tRCD 15
tCAS 12.5
dram_dbus_turn_around_time 30
dram_write_high_wm 56
dram_write_low_wm 48
min_dram_writes_per_switch 16
dram_mtps 2400
dram_dbus_return_time 13

mlop_pref_degree 16
mlop_num_updates 500
mlop_l1d_thresh 2
mlop_l2c_thresh 0.75
mlop_llc_thresh 0.3
mlop_debug_level 0
mlop_blocks_in_cache 4096
mlop_blocks_in_zone 64
mlop_amt_size 2048
mlop_PF_DEGREE 16
mlop_NUM_UPDATES 500
mlop_L1D_THRESH 1000
mlop_L2C_THRESH 375
mlop_LLC_THRESH 150
mlop_ORIGIN 63
mlop_MAX_OFFSET 63
mlop_MIN_OFFSET -63
mlop_ORIGIN 63
mlop_NUM_OFFSETS 127


Heartbeat CPU  0 instructions:    1000000 cycles:     861996 heartbeat IPC: 1.16010 cumulative IPC: 1.16010 (Simulation time: 0 hr 0 min 1 sec) 
Heartbeat CPU  0 instructions:    2000000 cycles:    1864456 heartbeat IPC: 0.99755 cumulative IPC: 1.07270 (Simulation time: 0 hr 0 min 2 sec) 
Heartbeat CPU  0 instructions:    3000001 cycles:    2990060 heartbeat IPC: 0.88841 cumulative IPC: 1.00332 (Simulation time: 0 hr 0 min 4 sec) 
Heartbeat CPU  0 instructions:    4000000 cycles:    4090835 heartbeat IPC: 0.90845 cumulative IPC: 0.97780 (Simulation time: 0 hr 0 min 5 sec) 
Heartbeat CPU  0 instructions:    5000001 cycles:    5173126 heartbeat IPC: 0.92397 cumulative IPC: 0.96653 (Simulation time: 0 hr 0 min 7 sec) 
Heartbeat CPU  0 instructions:    6000000 cycles:    6295937 heartbeat IPC: 0.89062 cumulative IPC: 0.95300 (Simulation time: 0 hr 0 min 8 sec) 
Heartbeat CPU  0 instructions:    7000001 cycles:    7363127 heartbeat IPC: 0.93704 cumulative IPC: 0.95068 (Simulation time: 0 hr 0 min 9 sec) 
Heartbeat CPU  0 instructions:    8000000 cycles:    8565891 heartbeat IPC: 0.83142 cumulative IPC: 0.93394 (Simulation time: 0 hr 0 min 11 sec) 
Heartbeat CPU  0 instructions:    9000000 cycles:    9685312 heartbeat IPC: 0.89332 cumulative IPC: 0.92924 (Simulation time: 0 hr 0 min 12 sec) 
Heartbeat CPU  0 instructions:   10000003 cycles:   10815081 heartbeat IPC: 0.88514 cumulative IPC: 0.92464 (Simulation time: 0 hr 0 min 14 sec) 
Heartbeat CPU  0 instructions:   11000000 cycles:   11872823 heartbeat IPC: 0.94541 cumulative IPC: 0.92649 (Simulation time: 0 hr 0 min 15 sec) 
Heartbeat CPU  0 instructions:   12000000 cycles:   13017026 heartbeat IPC: 0.87397 cumulative IPC: 0.92187 (Simulation time: 0 hr 0 min 17 sec) 
Heartbeat CPU  0 instructions:   13000001 cycles:   14156478 heartbeat IPC: 0.87762 cumulative IPC: 0.91831 (Simulation time: 0 hr 0 min 18 sec) 
Heartbeat CPU  0 instructions:   14000000 cycles:   15083181 heartbeat IPC: 1.07909 cumulative IPC: 0.92819 (Simulation time: 0 hr 0 min 19 sec) 
Heartbeat CPU  0 instructions:   15000001 cycles:   16047176 heartbeat IPC: 1.03735 cumulative IPC: 0.93474 (Simulation time: 0 hr 0 min 21 sec) 
Heartbeat CPU  0 instructions:   16000000 cycles:   17176191 heartbeat IPC: 0.88573 cumulative IPC: 0.93152 (Simulation time: 0 hr 0 min 22 sec) 
Heartbeat CPU  0 instructions:   17000000 cycles:   18271722 heartbeat IPC: 0.91280 cumulative IPC: 0.93040 (Simulation time: 0 hr 0 min 23 sec) 
Heartbeat CPU  0 instructions:   18000003 cycles:   19388166 heartbeat IPC: 0.89570 cumulative IPC: 0.92840 (Simulation time: 0 hr 0 min 25 sec) 
Heartbeat CPU  0 instructions:   19000001 cycles:   20469336 heartbeat IPC: 0.92492 cumulative IPC: 0.92822 (Simulation time: 0 hr 0 min 26 sec) 
Heartbeat CPU  0 instructions:   20000000 cycles:   21561150 heartbeat IPC: 0.91591 cumulative IPC: 0.92759 (Simulation time: 0 hr 0 min 28 sec) 
Heartbeat CPU  0 instructions:   21000000 cycles:   22753600 heartbeat IPC: 0.83861 cumulative IPC: 0.92293 (Simulation time: 0 hr 0 min 29 sec) 
Heartbeat CPU  0 instructions:   22000003 cycles:   23880968 heartbeat IPC: 0.88702 cumulative IPC: 0.92124 (Simulation time: 0 hr 0 min 30 sec) 
Heartbeat CPU  0 instructions:   23000001 cycles:   24931075 heartbeat IPC: 0.95228 cumulative IPC: 0.92254 (Simulation time: 0 hr 0 min 32 sec) 
Heartbeat CPU  0 instructions:   24000000 cycles:   26047895 heartbeat IPC: 0.89540 cumulative IPC: 0.92138 (Simulation time: 0 hr 0 min 33 sec) 
Heartbeat CPU  0 instructions:   25000000 cycles:   26927137 heartbeat IPC: 1.13734 cumulative IPC: 0.92843 (Simulation time: 0 hr 0 min 34 sec) 
Heartbeat CPU  0 instructions:   26000000 cycles:   27897366 heartbeat IPC: 1.03068 cumulative IPC: 0.93199 (Simulation time: 0 hr 0 min 36 sec) 
Heartbeat CPU  0 instructions:   27000002 cycles:   29000037 heartbeat IPC: 0.90689 cumulative IPC: 0.93103 (Simulation time: 0 hr 0 min 37 sec) 
Heartbeat CPU  0 instructions:   28000000 cycles:   30120743 heartbeat IPC: 0.89229 cumulative IPC: 0.92959 (Simulation time: 0 hr 0 min 39 sec) 
Heartbeat CPU  0 instructions:   29000003 cycles:   31186778 heartbeat IPC: 0.93806 cumulative IPC: 0.92988 (Simulation time: 0 hr 0 min 40 sec) 
Heartbeat CPU  0 instructions:   30000002 cycles:   32279290 heartbeat IPC: 0.91532 cumulative IPC: 0.92939 (Simulation time: 0 hr 0 min 41 sec) 
Heartbeat CPU  0 instructions:   31000003 cycles:   33381677 heartbeat IPC: 0.90712 cumulative IPC: 0.92865 (Simulation time: 0 hr 0 min 43 sec) 
Heartbeat CPU  0 instructions:   32000000 cycles:   34481358 heartbeat IPC: 0.90935 cumulative IPC: 0.92804 (Simulation time: 0 hr 0 min 44 sec) 
Heartbeat CPU  0 instructions:   33000001 cycles:   35468609 heartbeat IPC: 1.01291 cumulative IPC: 0.93040 (Simulation time: 0 hr 0 min 46 sec) 
Heartbeat CPU  0 instructions:   34000001 cycles:   36606510 heartbeat IPC: 0.87881 cumulative IPC: 0.92880 (Simulation time: 0 hr 0 min 47 sec) 
Heartbeat CPU  0 instructions:   35000003 cycles:   37678854 heartbeat IPC: 0.93254 cumulative IPC: 0.92890 (Simulation time: 0 hr 0 min 49 sec) 
Heartbeat CPU  0 instructions:   36000000 cycles:   38870456 heartbeat IPC: 0.83920 cumulative IPC: 0.92615 (Simulation time: 0 hr 0 min 50 sec) 
Heartbeat CPU  0 instructions:   37000002 cycles:   39986474 heartbeat IPC: 0.89604 cumulative IPC: 0.92531 (Simulation time: 0 hr 0 min 51 sec) 
Heartbeat CPU  0 instructions:   38000000 cycles:   41036463 heartbeat IPC: 0.95239 cumulative IPC: 0.92601 (Simulation time: 0 hr 0 min 53 sec) 
Heartbeat CPU  0 instructions:   39000001 cycles:   41930006 heartbeat IPC: 1.11914 cumulative IPC: 0.93012 (Simulation time: 0 hr 0 min 54 sec) 
Heartbeat CPU  0 instructions:   40000000 cycles:   42887896 heartbeat IPC: 1.04396 cumulative IPC: 0.93266 (Simulation time: 0 hr 0 min 55 sec) 
Heartbeat CPU  0 instructions:   41000000 cycles:   43989247 heartbeat IPC: 0.90798 cumulative IPC: 0.93205 (Simulation time: 0 hr 0 min 57 sec) 
Heartbeat CPU  0 instructions:   42000000 cycles:   45114307 heartbeat IPC: 0.88884 cumulative IPC: 0.93097 (Simulation time: 0 hr 0 min 58 sec) 
Heartbeat CPU  0 instructions:   43000003 cycles:   46181918 heartbeat IPC: 0.93667 cumulative IPC: 0.93110 (Simulation time: 0 hr 1 min 0 sec) 
Heartbeat CPU  0 instructions:   44000000 cycles:   47301854 heartbeat IPC: 0.89291 cumulative IPC: 0.93020 (Simulation time: 0 hr 1 min 1 sec) 
Heartbeat CPU  0 instructions:   45000001 cycles:   48335599 heartbeat IPC: 0.96736 cumulative IPC: 0.93099 (Simulation time: 0 hr 1 min 2 sec) 
Heartbeat CPU  0 instructions:   46000000 cycles:   49422036 heartbeat IPC: 0.92044 cumulative IPC: 0.93076 (Simulation time: 0 hr 1 min 4 sec) 
Heartbeat CPU  0 instructions:   47000003 cycles:   50530342 heartbeat IPC: 0.90228 cumulative IPC: 0.93013 (Simulation time: 0 hr 1 min 5 sec) 
Heartbeat CPU  0 instructions:   48000000 cycles:   51499570 heartbeat IPC: 1.03175 cumulative IPC: 0.93205 (Simulation time: 0 hr 1 min 7 sec) 
Heartbeat CPU  0 instructions:   49000000 cycles:   52614124 heartbeat IPC: 0.89722 cumulative IPC: 0.93131 (Simulation time: 0 hr 1 min 8 sec) 
Heartbeat CPU  0 instructions:   50000000 cycles:   53698187 heartbeat IPC: 0.92246 cumulative IPC: 0.93113 (Simulation time: 0 hr 1 min 10 sec) 
Heartbeat CPU  0 instructions:   51000001 cycles:   54765556 heartbeat IPC: 0.93688 cumulative IPC: 0.93124 (Simulation time: 0 hr 1 min 11 sec) 
Heartbeat CPU  0 instructions:   52000000 cycles:   55895261 heartbeat IPC: 0.88519 cumulative IPC: 0.93031 (Simulation time: 0 hr 1 min 12 sec) 
Heartbeat CPU  0 instructions:   53000000 cycles:   57001837 heartbeat IPC: 0.90369 cumulative IPC: 0.92979 (Simulation time: 0 hr 1 min 14 sec) 
Heartbeat CPU  0 instructions:   54000001 cycles:   58198498 heartbeat IPC: 0.83566 cumulative IPC: 0.92786 (Simulation time: 0 hr 1 min 15 sec) 
Heartbeat CPU  0 instructions:   55000002 cycles:   59318191 heartbeat IPC: 0.89310 cumulative IPC: 0.92720 (Simulation time: 0 hr 1 min 17 sec) 
Heartbeat CPU  0 instructions:   56000000 cycles:   60384031 heartbeat IPC: 0.93823 cumulative IPC: 0.92740 (Simulation time: 0 hr 1 min 18 sec) 
Heartbeat CPU  0 instructions:   57000000 cycles:   61472092 heartbeat IPC: 0.91907 cumulative IPC: 0.92725 (Simulation time: 0 hr 1 min 19 sec) 
Heartbeat CPU  0 instructions:   58000001 cycles:   62561381 heartbeat IPC: 0.91803 cumulative IPC: 0.92709 (Simulation time: 0 hr 1 min 21 sec) 
Heartbeat CPU  0 instructions:   59000000 cycles:   63436120 heartbeat IPC: 1.14320 cumulative IPC: 0.93007 (Simulation time: 0 hr 1 min 22 sec) 
Heartbeat CPU  0 instructions:   60000000 cycles:   64555125 heartbeat IPC: 0.89365 cumulative IPC: 0.92944 (Simulation time: 0 hr 1 min 23 sec) 
Heartbeat CPU  0 instructions:   61000000 cycles:   65651381 heartbeat IPC: 0.91220 cumulative IPC: 0.92915 (Simulation time: 0 hr 1 min 25 sec) 
Heartbeat CPU  0 instructions:   62000000 cycles:   66729692 heartbeat IPC: 0.92738 cumulative IPC: 0.92912 (Simulation time: 0 hr 1 min 26 sec) 
Heartbeat CPU  0 instructions:   63000001 cycles:   67747079 heartbeat IPC: 0.98291 cumulative IPC: 0.92993 (Simulation time: 0 hr 1 min 28 sec) 
Heartbeat CPU  0 instructions:   64000000 cycles:   68869586 heartbeat IPC: 0.89086 cumulative IPC: 0.92929 (Simulation time: 0 hr 1 min 29 sec) 
Heartbeat CPU  0 instructions:   65000000 cycles:   69945081 heartbeat IPC: 0.92980 cumulative IPC: 0.92930 (Simulation time: 0 hr 1 min 31 sec) 
Heartbeat CPU  0 instructions:   66000000 cycles:   71001998 heartbeat IPC: 0.94615 cumulative IPC: 0.92955 (Simulation time: 0 hr 1 min 32 sec) 
Heartbeat CPU  0 instructions:   67000000 cycles:   72115558 heartbeat IPC: 0.89802 cumulative IPC: 0.92906 (Simulation time: 0 hr 1 min 33 sec) 
Heartbeat CPU  0 instructions:   68000000 cycles:   73203963 heartbeat IPC: 0.91878 cumulative IPC: 0.92891 (Simulation time: 0 hr 1 min 35 sec) 
Heartbeat CPU  0 instructions:   69000001 cycles:   74312642 heartbeat IPC: 0.90198 cumulative IPC: 0.92851 (Simulation time: 0 hr 1 min 36 sec) 
Heartbeat CPU  0 instructions:   70000000 cycles:   75285576 heartbeat IPC: 1.02782 cumulative IPC: 0.92979 (Simulation time: 0 hr 1 min 38 sec) 
Heartbeat CPU  0 instructions:   71000000 cycles:   76200620 heartbeat IPC: 1.09284 cumulative IPC: 0.93175 (Simulation time: 0 hr 1 min 39 sec) 
Heartbeat CPU  0 instructions:   72000000 cycles:   77300168 heartbeat IPC: 0.90946 cumulative IPC: 0.93143 (Simulation time: 0 hr 1 min 41 sec) 
Heartbeat CPU  0 instructions:   73000001 cycles:   78362283 heartbeat IPC: 0.94152 cumulative IPC: 0.93157 (Simulation time: 0 hr 1 min 42 sec) 
Heartbeat CPU  0 instructions:   74000000 cycles:   79429188 heartbeat IPC: 0.93729 cumulative IPC: 0.93165 (Simulation time: 0 hr 1 min 43 sec) 
Heartbeat CPU  0 instructions:   75000001 cycles:   80371726 heartbeat IPC: 1.06097 cumulative IPC: 0.93316 (Simulation time: 0 hr 1 min 45 sec) 
Heartbeat CPU  0 instructions:   76000000 cycles:   81359755 heartbeat IPC: 1.01212 cumulative IPC: 0.93412 (Simulation time: 0 hr 1 min 46 sec) 
Heartbeat CPU  0 instructions:   77000002 cycles:   82401438 heartbeat IPC: 0.95999 cumulative IPC: 0.93445 (Simulation time: 0 hr 1 min 48 sec) 
Heartbeat CPU  0 instructions:   78000000 cycles:   83352713 heartbeat IPC: 1.05122 cumulative IPC: 0.93578 (Simulation time: 0 hr 1 min 49 sec) 
Heartbeat CPU  0 instructions:   79000003 cycles:   84383389 heartbeat IPC: 0.97024 cumulative IPC: 0.93620 (Simulation time: 0 hr 1 min 51 sec) 
Heartbeat CPU  0 instructions:   80000000 cycles:   85449796 heartbeat IPC: 0.93773 cumulative IPC: 0.93622 (Simulation time: 0 hr 1 min 52 sec) 
Heartbeat CPU  0 instructions:   81000003 cycles:   86538270 heartbeat IPC: 0.91872 cumulative IPC: 0.93600 (Simulation time: 0 hr 1 min 53 sec) 
Heartbeat CPU  0 instructions:   82000000 cycles:   87613259 heartbeat IPC: 0.93024 cumulative IPC: 0.93593 (Simulation time: 0 hr 1 min 55 sec) 
Heartbeat CPU  0 instructions:   83000001 cycles:   88712551 heartbeat IPC: 0.90968 cumulative IPC: 0.93561 (Simulation time: 0 hr 1 min 56 sec) 
Heartbeat CPU  0 instructions:   84000000 cycles:   89751620 heartbeat IPC: 0.96240 cumulative IPC: 0.93592 (Simulation time: 0 hr 1 min 58 sec) 
Heartbeat CPU  0 instructions:   85000000 cycles:   90751325 heartbeat IPC: 1.00030 cumulative IPC: 0.93663 (Simulation time: 0 hr 1 min 59 sec) 
Heartbeat CPU  0 instructions:   86000000 cycles:   91837456 heartbeat IPC: 0.92070 cumulative IPC: 0.93644 (Simulation time: 0 hr 2 min 0 sec) 
Heartbeat CPU  0 instructions:   87000002 cycles:   92924273 heartbeat IPC: 0.92012 cumulative IPC: 0.93625 (Simulation time: 0 hr 2 min 2 sec) 
Heartbeat CPU  0 instructions:   88000000 cycles:   93994466 heartbeat IPC: 0.93441 cumulative IPC: 0.93623 (Simulation time: 0 hr 2 min 3 sec) 
Heartbeat CPU  0 instructions:   89000002 cycles:   95093832 heartbeat IPC: 0.90962 cumulative IPC: 0.93592 (Simulation time: 0 hr 2 min 5 sec) 
Heartbeat CPU  0 instructions:   90000002 cycles:   96181232 heartbeat IPC: 0.91962 cumulative IPC: 0.93573 (Simulation time: 0 hr 2 min 6 sec) 
Heartbeat CPU  0 instructions:   91000001 cycles:   97247718 heartbeat IPC: 0.93766 cumulative IPC: 0.93575 (Simulation time: 0 hr 2 min 8 sec) 
Heartbeat CPU  0 instructions:   92000000 cycles:   98366506 heartbeat IPC: 0.89382 cumulative IPC: 0.93528 (Simulation time: 0 hr 2 min 9 sec) 
Heartbeat CPU  0 instructions:   93000000 cycles:   99405870 heartbeat IPC: 0.96213 cumulative IPC: 0.93556 (Simulation time: 0 hr 2 min 10 sec) 
Heartbeat CPU  0 instructions:   94000001 cycles:  100524125 heartbeat IPC: 0.89425 cumulative IPC: 0.93510 (Simulation time: 0 hr 2 min 12 sec) 
Heartbeat CPU  0 instructions:   95000001 cycles:  101616167 heartbeat IPC: 0.91572 cumulative IPC: 0.93489 (Simulation time: 0 hr 2 min 13 sec) 
Heartbeat CPU  0 instructions:   96000000 cycles:  102705932 heartbeat IPC: 0.91763 cumulative IPC: 0.93471 (Simulation time: 0 hr 2 min 15 sec) 
Heartbeat CPU  0 instructions:   97000001 cycles:  103834227 heartbeat IPC: 0.88629 cumulative IPC: 0.93418 (Simulation time: 0 hr 2 min 16 sec) 
Heartbeat CPU  0 instructions:   98000000 cycles:  104932969 heartbeat IPC: 0.91013 cumulative IPC: 0.93393 (Simulation time: 0 hr 2 min 17 sec) 
Heartbeat CPU  0 instructions:   99000003 cycles:  106004565 heartbeat IPC: 0.93319 cumulative IPC: 0.93392 (Simulation time: 0 hr 2 min 19 sec) 
Heartbeat CPU  0 instructions:  100000000 cycles:  107090129 heartbeat IPC: 0.92118 cumulative IPC: 0.93379 (Simulation time: 0 hr 2 min 20 sec) 

Warmup complete CPU  0 instructions:  100000001 cycles:  107090131 (Simulation time: 0 hr 2 min 20 sec) 

Heartbeat CPU  0 instructions:  101000000 cycles:  109764698 heartbeat IPC: 0.37389 cumulative IPC: 0.37389 (Simulation time: 0 hr 2 min 22 sec) 
Heartbeat CPU  0 instructions:  102000000 cycles:  112415368 heartbeat IPC: 0.37726 cumulative IPC: 0.37557 (Simulation time: 0 hr 2 min 25 sec) 
Heartbeat CPU  0 instructions:  103000000 cycles:  115071156 heartbeat IPC: 0.37654 cumulative IPC: 0.37589 (Simulation time: 0 hr 2 min 27 sec) 
Heartbeat CPU  0 instructions:  104000000 cycles:  117635315 heartbeat IPC: 0.38999 cumulative IPC: 0.37932 (Simulation time: 0 hr 2 min 29 sec) 
Heartbeat CPU  0 instructions:  105000003 cycles:  120368922 heartbeat IPC: 0.36582 cumulative IPC: 0.37654 (Simulation time: 0 hr 2 min 31 sec) 
Heartbeat CPU  0 instructions:  106000001 cycles:  123063798 heartbeat IPC: 0.37107 cumulative IPC: 0.37562 (Simulation time: 0 hr 2 min 34 sec) 
Heartbeat CPU  0 instructions:  107000003 cycles:  125760916 heartbeat IPC: 0.37077 cumulative IPC: 0.37492 (Simulation time: 0 hr 2 min 36 sec) 
Heartbeat CPU  0 instructions:  108000000 cycles:  128583909 heartbeat IPC: 0.35423 cumulative IPC: 0.37220 (Simulation time: 0 hr 2 min 38 sec) 
Heartbeat CPU  0 instructions:  109000000 cycles:  131377885 heartbeat IPC: 0.35791 cumulative IPC: 0.37056 (Simulation time: 0 hr 2 min 40 sec) 
Heartbeat CPU  0 instructions:  110000002 cycles:  134054318 heartbeat IPC: 0.37363 cumulative IPC: 0.37086 (Simulation time: 0 hr 2 min 43 sec) 
Heartbeat CPU  0 instructions:  111000002 cycles:  136631882 heartbeat IPC: 0.38796 cumulative IPC: 0.37235 (Simulation time: 0 hr 2 min 45 sec) 
Heartbeat CPU  0 instructions:  112000000 cycles:  139385606 heartbeat IPC: 0.36314 cumulative IPC: 0.37157 (Simulation time: 0 hr 2 min 47 sec) 
Heartbeat CPU  0 instructions:  113000001 cycles:  142245220 heartbeat IPC: 0.34970 cumulative IPC: 0.36979 (Simulation time: 0 hr 2 min 49 sec) 
Heartbeat CPU  0 instructions:  114000000 cycles:  145070306 heartbeat IPC: 0.35397 cumulative IPC: 0.36861 (Simulation time: 0 hr 2 min 52 sec) 
Heartbeat CPU  0 instructions:  115000000 cycles:  147781081 heartbeat IPC: 0.36890 cumulative IPC: 0.36863 (Simulation time: 0 hr 2 min 54 sec) 
Heartbeat CPU  0 instructions:  116000000 cycles:  150546659 heartbeat IPC: 0.36159 cumulative IPC: 0.36818 (Simulation time: 0 hr 2 min 56 sec) 
Heartbeat CPU  0 instructions:  117000002 cycles:  153273616 heartbeat IPC: 0.36671 cumulative IPC: 0.36810 (Simulation time: 0 hr 2 min 58 sec) 
Heartbeat CPU  0 instructions:  118000000 cycles:  156020063 heartbeat IPC: 0.36411 cumulative IPC: 0.36787 (Simulation time: 0 hr 3 min 1 sec) 
Heartbeat CPU  0 instructions:  119000000 cycles:  158775460 heartbeat IPC: 0.36292 cumulative IPC: 0.36761 (Simulation time: 0 hr 3 min 3 sec) 
Heartbeat CPU  0 instructions:  120000000 cycles:  161607241 heartbeat IPC: 0.35313 cumulative IPC: 0.36686 (Simulation time: 0 hr 3 min 5 sec) 
Heartbeat CPU  0 instructions:  121000000 cycles:  164317086 heartbeat IPC: 0.36902 cumulative IPC: 0.36696 (Simulation time: 0 hr 3 min 7 sec) 
Heartbeat CPU  0 instructions:  122000001 cycles:  167061459 heartbeat IPC: 0.36438 cumulative IPC: 0.36684 (Simulation time: 0 hr 3 min 10 sec) 
Heartbeat CPU  0 instructions:  123000001 cycles:  169750642 heartbeat IPC: 0.37186 cumulative IPC: 0.36706 (Simulation time: 0 hr 3 min 12 sec) 
Heartbeat CPU  0 instructions:  124000000 cycles:  172389801 heartbeat IPC: 0.37891 cumulative IPC: 0.36754 (Simulation time: 0 hr 3 min 14 sec) 
Heartbeat CPU  0 instructions:  125000003 cycles:  175019348 heartbeat IPC: 0.38029 cumulative IPC: 0.36803 (Simulation time: 0 hr 3 min 16 sec) 
Heartbeat CPU  0 instructions:  126000000 cycles:  177674424 heartbeat IPC: 0.37664 cumulative IPC: 0.36835 (Simulation time: 0 hr 3 min 19 sec) 
Heartbeat CPU  0 instructions:  127000001 cycles:  180538721 heartbeat IPC: 0.34913 cumulative IPC: 0.36760 (Simulation time: 0 hr 3 min 21 sec) 
Heartbeat CPU  0 instructions:  128000000 cycles:  183246131 heartbeat IPC: 0.36936 cumulative IPC: 0.36767 (Simulation time: 0 hr 3 min 23 sec) 
Heartbeat CPU  0 instructions:  129000001 cycles:  186091668 heartbeat IPC: 0.35143 cumulative IPC: 0.36708 (Simulation time: 0 hr 3 min 25 sec) 
Heartbeat CPU  0 instructions:  130000000 cycles:  188941998 heartbeat IPC: 0.35084 cumulative IPC: 0.36652 (Simulation time: 0 hr 3 min 28 sec) 
Heartbeat CPU  0 instructions:  131000000 cycles:  191683351 heartbeat IPC: 0.36478 cumulative IPC: 0.36646 (Simulation time: 0 hr 3 min 30 sec) 
Heartbeat CPU  0 instructions:  132000000 cycles:  194434099 heartbeat IPC: 0.36354 cumulative IPC: 0.36637 (Simulation time: 0 hr 3 min 32 sec) 
Heartbeat CPU  0 instructions:  133000001 cycles:  197138000 heartbeat IPC: 0.36984 cumulative IPC: 0.36647 (Simulation time: 0 hr 3 min 35 sec) 
Heartbeat CPU  0 instructions:  134000000 cycles:  199889302 heartbeat IPC: 0.36346 cumulative IPC: 0.36638 (Simulation time: 0 hr 3 min 37 sec) 
Heartbeat CPU  0 instructions:  135000000 cycles:  202671145 heartbeat IPC: 0.35947 cumulative IPC: 0.36618 (Simulation time: 0 hr 3 min 39 sec) 
Heartbeat CPU  0 instructions:  136000000 cycles:  205444917 heartbeat IPC: 0.36052 cumulative IPC: 0.36602 (Simulation time: 0 hr 3 min 41 sec) 
Heartbeat CPU  0 instructions:  137000000 cycles:  208166970 heartbeat IPC: 0.36737 cumulative IPC: 0.36606 (Simulation time: 0 hr 3 min 44 sec) 
Heartbeat CPU  0 instructions:  138000000 cycles:  210763155 heartbeat IPC: 0.38518 cumulative IPC: 0.36654 (Simulation time: 0 hr 3 min 46 sec) 
Heartbeat CPU  0 instructions:  139000002 cycles:  213435930 heartbeat IPC: 0.37414 cumulative IPC: 0.36673 (Simulation time: 0 hr 3 min 48 sec) 
Heartbeat CPU  0 instructions:  140000000 cycles:  216178576 heartbeat IPC: 0.36461 cumulative IPC: 0.36667 (Simulation time: 0 hr 3 min 50 sec) 
Heartbeat CPU  0 instructions:  141000003 cycles:  218908686 heartbeat IPC: 0.36629 cumulative IPC: 0.36667 (Simulation time: 0 hr 3 min 53 sec) 
Heartbeat CPU  0 instructions:  142000000 cycles:  221574985 heartbeat IPC: 0.37505 cumulative IPC: 0.36686 (Simulation time: 0 hr 3 min 55 sec) 
Heartbeat CPU  0 instructions:  143000001 cycles:  224222782 heartbeat IPC: 0.37767 cumulative IPC: 0.36711 (Simulation time: 0 hr 3 min 57 sec) 
Heartbeat CPU  0 instructions:  144000000 cycles:  225736497 heartbeat IPC: 0.66063 cumulative IPC: 0.37085 (Simulation time: 0 hr 3 min 59 sec) 
Heartbeat CPU  0 instructions:  145000002 cycles:  226680045 heartbeat IPC: 1.05983 cumulative IPC: 0.37629 (Simulation time: 0 hr 4 min 2 sec) 
Heartbeat CPU  0 instructions:  146000001 cycles:  227605741 heartbeat IPC: 1.08027 cumulative IPC: 0.38169 (Simulation time: 0 hr 4 min 4 sec) 
Heartbeat CPU  0 instructions:  147000000 cycles:  228636170 heartbeat IPC: 0.97047 cumulative IPC: 0.38668 (Simulation time: 0 hr 4 min 7 sec) 
Heartbeat CPU  0 instructions:  148000000 cycles:  229769452 heartbeat IPC: 0.88239 cumulative IPC: 0.39126 (Simulation time: 0 hr 4 min 10 sec) 
Heartbeat CPU  0 instructions:  149000000 cycles:  231770503 heartbeat IPC: 0.49974 cumulative IPC: 0.39300 (Simulation time: 0 hr 4 min 13 sec) 
Heartbeat CPU  0 instructions:  150000001 cycles:  233950205 heartbeat IPC: 0.45878 cumulative IPC: 0.39414 (Simulation time: 0 hr 4 min 16 sec) 
Heartbeat CPU  0 instructions:  151000001 cycles:  236248987 heartbeat IPC: 0.43501 cumulative IPC: 0.39486 (Simulation time: 0 hr 4 min 20 sec) 
Heartbeat CPU  0 instructions:  152000000 cycles:  239038582 heartbeat IPC: 0.35847 cumulative IPC: 0.39409 (Simulation time: 0 hr 4 min 24 sec) 
Heartbeat CPU  0 instructions:  153000000 cycles:  242314431 heartbeat IPC: 0.30526 cumulative IPC: 0.39194 (Simulation time: 0 hr 4 min 29 sec) 
Heartbeat CPU  0 instructions:  154000003 cycles:  245753675 heartbeat IPC: 0.29076 cumulative IPC: 0.38943 (Simulation time: 0 hr 4 min 33 sec) 
Heartbeat CPU  0 instructions:  155000003 cycles:  247420147 heartbeat IPC: 0.60007 cumulative IPC: 0.39193 (Simulation time: 0 hr 4 min 36 sec) 
Heartbeat CPU  0 instructions:  156000000 cycles:  248559832 heartbeat IPC: 0.87743 cumulative IPC: 0.39584 (Simulation time: 0 hr 4 min 39 sec) 
Heartbeat CPU  0 instructions:  157000001 cycles:  249694466 heartbeat IPC: 0.88134 cumulative IPC: 0.39971 (Simulation time: 0 hr 4 min 41 sec) 
Heartbeat CPU  0 instructions:  158000002 cycles:  250895395 heartbeat IPC: 0.83269 cumulative IPC: 0.40332 (Simulation time: 0 hr 4 min 44 sec) 
Heartbeat CPU  0 instructions:  159000002 cycles:  253219769 heartbeat IPC: 0.43022 cumulative IPC: 0.40375 (Simulation time: 0 hr 4 min 48 sec) 
Heartbeat CPU  0 instructions:  160000000 cycles:  255516206 heartbeat IPC: 0.43546 cumulative IPC: 0.40424 (Simulation time: 0 hr 4 min 51 sec) 
Heartbeat CPU  0 instructions:  161000002 cycles:  257824452 heartbeat IPC: 0.43323 cumulative IPC: 0.40469 (Simulation time: 0 hr 4 min 55 sec) 
Heartbeat CPU  0 instructions:  162000000 cycles:  260929112 heartbeat IPC: 0.32210 cumulative IPC: 0.40302 (Simulation time: 0 hr 4 min 59 sec) 
Heartbeat CPU  0 instructions:  163000002 cycles:  264285594 heartbeat IPC: 0.29793 cumulative IPC: 0.40077 (Simulation time: 0 hr 5 min 4 sec) 
Heartbeat CPU  0 instructions:  164000000 cycles:  267480642 heartbeat IPC: 0.31298 cumulative IPC: 0.39903 (Simulation time: 0 hr 5 min 8 sec) 
Heartbeat CPU  0 instructions:  165000003 cycles:  270129826 heartbeat IPC: 0.37748 cumulative IPC: 0.39868 (Simulation time: 0 hr 5 min 10 sec) 
Heartbeat CPU  0 instructions:  166000000 cycles:  272965158 heartbeat IPC: 0.35269 cumulative IPC: 0.39789 (Simulation time: 0 hr 5 min 13 sec) 
Heartbeat CPU  0 instructions:  167000002 cycles:  275747146 heartbeat IPC: 0.35946 cumulative IPC: 0.39726 (Simulation time: 0 hr 5 min 15 sec) 
Heartbeat CPU  0 instructions:  168000000 cycles:  278524366 heartbeat IPC: 0.36007 cumulative IPC: 0.39665 (Simulation time: 0 hr 5 min 17 sec) 
Heartbeat CPU  0 instructions:  169000000 cycles:  281332436 heartbeat IPC: 0.35612 cumulative IPC: 0.39600 (Simulation time: 0 hr 5 min 19 sec) 
Heartbeat CPU  0 instructions:  170000003 cycles:  284116187 heartbeat IPC: 0.35923 cumulative IPC: 0.39542 (Simulation time: 0 hr 5 min 22 sec) 
Heartbeat CPU  0 instructions:  171000000 cycles:  286824344 heartbeat IPC: 0.36925 cumulative IPC: 0.39503 (Simulation time: 0 hr 5 min 24 sec) 
Heartbeat CPU  0 instructions:  172000000 cycles:  289601404 heartbeat IPC: 0.36009 cumulative IPC: 0.39450 (Simulation time: 0 hr 5 min 26 sec) 
Heartbeat CPU  0 instructions:  173000000 cycles:  292295314 heartbeat IPC: 0.37121 cumulative IPC: 0.39416 (Simulation time: 0 hr 5 min 29 sec) 
Heartbeat CPU  0 instructions:  174000000 cycles:  295079187 heartbeat IPC: 0.35921 cumulative IPC: 0.39364 (Simulation time: 0 hr 5 min 31 sec) 
Heartbeat CPU  0 instructions:  175000001 cycles:  297850309 heartbeat IPC: 0.36087 cumulative IPC: 0.39316 (Simulation time: 0 hr 5 min 33 sec) 
Heartbeat CPU  0 instructions:  176000000 cycles:  300634451 heartbeat IPC: 0.35918 cumulative IPC: 0.39267 (Simulation time: 0 hr 5 min 35 sec) 
Heartbeat CPU  0 instructions:  177000000 cycles:  303416829 heartbeat IPC: 0.35940 cumulative IPC: 0.39220 (Simulation time: 0 hr 5 min 38 sec) 
Heartbeat CPU  0 instructions:  178000001 cycles:  306139537 heartbeat IPC: 0.36728 cumulative IPC: 0.39186 (Simulation time: 0 hr 5 min 40 sec) 
Heartbeat CPU  0 instructions:  179000003 cycles:  308752468 heartbeat IPC: 0.38271 cumulative IPC: 0.39174 (Simulation time: 0 hr 5 min 42 sec) 
Heartbeat CPU  0 instructions:  180000000 cycles:  311498564 heartbeat IPC: 0.36415 cumulative IPC: 0.39137 (Simulation time: 0 hr 5 min 44 sec) 
Heartbeat CPU  0 instructions:  181000000 cycles:  313984756 heartbeat IPC: 0.40222 cumulative IPC: 0.39150 (Simulation time: 0 hr 5 min 47 sec) 
Heartbeat CPU  0 instructions:  182000000 cycles:  316669068 heartbeat IPC: 0.37253 cumulative IPC: 0.39126 (Simulation time: 0 hr 5 min 49 sec) 
Heartbeat CPU  0 instructions:  183000000 cycles:  319247571 heartbeat IPC: 0.38782 cumulative IPC: 0.39122 (Simulation time: 0 hr 5 min 51 sec) 
Heartbeat CPU  0 instructions:  184000000 cycles:  321725090 heartbeat IPC: 0.40363 cumulative IPC: 0.39136 (Simulation time: 0 hr 5 min 53 sec) 
Heartbeat CPU  0 instructions:  185000000 cycles:  324343245 heartbeat IPC: 0.38195 cumulative IPC: 0.39125 (Simulation time: 0 hr 5 min 55 sec) 
Heartbeat CPU  0 instructions:  186000000 cycles:  327048415 heartbeat IPC: 0.36966 cumulative IPC: 0.39098 (Simulation time: 0 hr 5 min 58 sec) 
Heartbeat CPU  0 instructions:  187000000 cycles:  329628139 heartbeat IPC: 0.38764 cumulative IPC: 0.39094 (Simulation time: 0 hr 6 min 0 sec) 
Heartbeat CPU  0 instructions:  188000000 cycles:  332015345 heartbeat IPC: 0.41890 cumulative IPC: 0.39124 (Simulation time: 0 hr 6 min 2 sec) 
Heartbeat CPU  0 instructions:  189000000 cycles:  334653218 heartbeat IPC: 0.37909 cumulative IPC: 0.39110 (Simulation time: 0 hr 6 min 4 sec) 
Heartbeat CPU  0 instructions:  190000000 cycles:  337211614 heartbeat IPC: 0.39087 cumulative IPC: 0.39110 (Simulation time: 0 hr 6 min 7 sec) 
Heartbeat CPU  0 instructions:  191000001 cycles:  339831273 heartbeat IPC: 0.38173 cumulative IPC: 0.39099 (Simulation time: 0 hr 6 min 9 sec) 
Heartbeat CPU  0 instructions:  192000000 cycles:  342422647 heartbeat IPC: 0.38590 cumulative IPC: 0.39094 (Simulation time: 0 hr 6 min 11 sec) 
Heartbeat CPU  0 instructions:  193000001 cycles:  344966200 heartbeat IPC: 0.39315 cumulative IPC: 0.39096 (Simulation time: 0 hr 6 min 14 sec) 
Heartbeat CPU  0 instructions:  194000000 cycles:  347010529 heartbeat IPC: 0.48916 cumulative IPC: 0.39180 (Simulation time: 0 hr 6 min 15 sec) 
Heartbeat CPU  0 instructions:  195000000 cycles:  349642137 heartbeat IPC: 0.38000 cumulative IPC: 0.39167 (Simulation time: 0 hr 6 min 18 sec) 
Heartbeat CPU  0 instructions:  196000000 cycles:  352262351 heartbeat IPC: 0.38165 cumulative IPC: 0.39156 (Simulation time: 0 hr 6 min 20 sec) 
Heartbeat CPU  0 instructions:  197000002 cycles:  354822756 heartbeat IPC: 0.39056 cumulative IPC: 0.39155 (Simulation time: 0 hr 6 min 22 sec) 
Heartbeat CPU  0 instructions:  198000000 cycles:  357344768 heartbeat IPC: 0.39651 cumulative IPC: 0.39160 (Simulation time: 0 hr 6 min 24 sec) 
Heartbeat CPU  0 instructions:  199000000 cycles:  359861417 heartbeat IPC: 0.39735 cumulative IPC: 0.39166 (Simulation time: 0 hr 6 min 27 sec) 
Heartbeat CPU  0 instructions:  200000000 cycles:  362434704 heartbeat IPC: 0.38861 cumulative IPC: 0.39163 (Simulation time: 0 hr 6 min 29 sec) 
Heartbeat CPU  0 instructions:  201000002 cycles:  365108669 heartbeat IPC: 0.37398 cumulative IPC: 0.39144 (Simulation time: 0 hr 6 min 31 sec) 
Heartbeat CPU  0 instructions:  202000001 cycles:  367813497 heartbeat IPC: 0.36971 cumulative IPC: 0.39122 (Simulation time: 0 hr 6 min 33 sec) 
Heartbeat CPU  0 instructions:  203000000 cycles:  370397022 heartbeat IPC: 0.38707 cumulative IPC: 0.39118 (Simulation time: 0 hr 6 min 36 sec) 
Heartbeat CPU  0 instructions:  204000000 cycles:  372926918 heartbeat IPC: 0.39527 cumulative IPC: 0.39122 (Simulation time: 0 hr 6 min 38 sec) 
Heartbeat CPU  0 instructions:  205000002 cycles:  375551270 heartbeat IPC: 0.38105 cumulative IPC: 0.39112 (Simulation time: 0 hr 6 min 40 sec) 
Heartbeat CPU  0 instructions:  206000001 cycles:  378081643 heartbeat IPC: 0.39520 cumulative IPC: 0.39116 (Simulation time: 0 hr 6 min 42 sec) 
Heartbeat CPU  0 instructions:  207000000 cycles:  380659568 heartbeat IPC: 0.38791 cumulative IPC: 0.39113 (Simulation time: 0 hr 6 min 44 sec) 
Heartbeat CPU  0 instructions:  208000000 cycles:  383473026 heartbeat IPC: 0.35543 cumulative IPC: 0.39076 (Simulation time: 0 hr 6 min 47 sec) 
Heartbeat CPU  0 instructions:  209000003 cycles:  386297288 heartbeat IPC: 0.35408 cumulative IPC: 0.39039 (Simulation time: 0 hr 6 min 49 sec) 
Heartbeat CPU  0 instructions:  210000000 cycles:  388898181 heartbeat IPC: 0.38448 cumulative IPC: 0.39034 (Simulation time: 0 hr 6 min 52 sec) 
Heartbeat CPU  0 instructions:  211000000 cycles:  391763056 heartbeat IPC: 0.34906 cumulative IPC: 0.38992 (Simulation time: 0 hr 6 min 54 sec) 
Heartbeat CPU  0 instructions:  212000000 cycles:  394460257 heartbeat IPC: 0.37075 cumulative IPC: 0.38974 (Simulation time: 0 hr 6 min 56 sec) 
Heartbeat CPU  0 instructions:  213000002 cycles:  397202145 heartbeat IPC: 0.36471 cumulative IPC: 0.38950 (Simulation time: 0 hr 6 min 59 sec) 
Heartbeat CPU  0 instructions:  214000000 cycles:  400007065 heartbeat IPC: 0.35652 cumulative IPC: 0.38919 (Simulation time: 0 hr 7 min 1 sec) 
Heartbeat CPU  0 instructions:  215000001 cycles:  402796726 heartbeat IPC: 0.35847 cumulative IPC: 0.38890 (Simulation time: 0 hr 7 min 3 sec) 
Heartbeat CPU  0 instructions:  216000000 cycles:  405564062 heartbeat IPC: 0.36136 cumulative IPC: 0.38864 (Simulation time: 0 hr 7 min 5 sec) 
Heartbeat CPU  0 instructions:  217000000 cycles:  408341199 heartbeat IPC: 0.36008 cumulative IPC: 0.38838 (Simulation time: 0 hr 7 min 8 sec) 
Heartbeat CPU  0 instructions:  218000002 cycles:  411125119 heartbeat IPC: 0.35921 cumulative IPC: 0.38811 (Simulation time: 0 hr 7 min 10 sec) 
Heartbeat CPU  0 instructions:  219000000 cycles:  413881980 heartbeat IPC: 0.36273 cumulative IPC: 0.38789 (Simulation time: 0 hr 7 min 12 sec) 
Heartbeat CPU  0 instructions:  220000000 cycles:  416623270 heartbeat IPC: 0.36479 cumulative IPC: 0.38768 (Simulation time: 0 hr 7 min 14 sec) 
Heartbeat CPU  0 instructions:  221000003 cycles:  419426609 heartbeat IPC: 0.35672 cumulative IPC: 0.38740 (Simulation time: 0 hr 7 min 17 sec) 
Heartbeat CPU  0 instructions:  222000003 cycles:  422204608 heartbeat IPC: 0.35997 cumulative IPC: 0.38716 (Simulation time: 0 hr 7 min 19 sec) 
Heartbeat CPU  0 instructions:  223000000 cycles:  424921999 heartbeat IPC: 0.36800 cumulative IPC: 0.38700 (Simulation time: 0 hr 7 min 21 sec) 
Heartbeat CPU  0 instructions:  224000000 cycles:  427629491 heartbeat IPC: 0.36935 cumulative IPC: 0.38685 (Simulation time: 0 hr 7 min 23 sec) 
Heartbeat CPU  0 instructions:  225000000 cycles:  430261632 heartbeat IPC: 0.37992 cumulative IPC: 0.38679 (Simulation time: 0 hr 7 min 26 sec) 
Heartbeat CPU  0 instructions:  226000002 cycles:  432994814 heartbeat IPC: 0.36587 cumulative IPC: 0.38662 (Simulation time: 0 hr 7 min 28 sec) 
Heartbeat CPU  0 instructions:  227000000 cycles:  435730430 heartbeat IPC: 0.36555 cumulative IPC: 0.38644 (Simulation time: 0 hr 7 min 30 sec) 
Heartbeat CPU  0 instructions:  228000000 cycles:  438419863 heartbeat IPC: 0.37183 cumulative IPC: 0.38632 (Simulation time: 0 hr 7 min 33 sec) 
Heartbeat CPU  0 instructions:  229000003 cycles:  441222273 heartbeat IPC: 0.35684 cumulative IPC: 0.38607 (Simulation time: 0 hr 7 min 35 sec) 
Heartbeat CPU  0 instructions:  230000003 cycles:  444009823 heartbeat IPC: 0.35874 cumulative IPC: 0.38585 (Simulation time: 0 hr 7 min 37 sec) 
Heartbeat CPU  0 instructions:  231000000 cycles:  446790848 heartbeat IPC: 0.35958 cumulative IPC: 0.38563 (Simulation time: 0 hr 7 min 39 sec) 
Heartbeat CPU  0 instructions:  232000000 cycles:  449504807 heartbeat IPC: 0.36847 cumulative IPC: 0.38550 (Simulation time: 0 hr 7 min 42 sec) 
Heartbeat CPU  0 instructions:  233000001 cycles:  452236548 heartbeat IPC: 0.36607 cumulative IPC: 0.38534 (Simulation time: 0 hr 7 min 44 sec) 
Heartbeat CPU  0 instructions:  234000000 cycles:  454970294 heartbeat IPC: 0.36580 cumulative IPC: 0.38519 (Simulation time: 0 hr 7 min 46 sec) 
Heartbeat CPU  0 instructions:  235000000 cycles:  457683699 heartbeat IPC: 0.36854 cumulative IPC: 0.38506 (Simulation time: 0 hr 7 min 48 sec) 
Heartbeat CPU  0 instructions:  236000000 cycles:  460153962 heartbeat IPC: 0.40482 cumulative IPC: 0.38520 (Simulation time: 0 hr 7 min 51 sec) 
Heartbeat CPU  0 instructions:  237000001 cycles:  462495885 heartbeat IPC: 0.42700 cumulative IPC: 0.38547 (Simulation time: 0 hr 7 min 53 sec) 
Heartbeat CPU  0 instructions:  238000000 cycles:  465043826 heartbeat IPC: 0.39247 cumulative IPC: 0.38552 (Simulation time: 0 hr 7 min 55 sec) 
Heartbeat CPU  0 instructions:  239000000 cycles:  467805399 heartbeat IPC: 0.36211 cumulative IPC: 0.38535 (Simulation time: 0 hr 7 min 57 sec) 
Heartbeat CPU  0 instructions:  240000000 cycles:  470477935 heartbeat IPC: 0.37418 cumulative IPC: 0.38526 (Simulation time: 0 hr 8 min 0 sec) 
Heartbeat CPU  0 instructions:  241000000 cycles:  473176661 heartbeat IPC: 0.37055 cumulative IPC: 0.38515 (Simulation time: 0 hr 8 min 2 sec) 
Heartbeat CPU  0 instructions:  242000003 cycles:  476006078 heartbeat IPC: 0.35343 cumulative IPC: 0.38491 (Simulation time: 0 hr 8 min 4 sec) 
Heartbeat CPU  0 instructions:  243000001 cycles:  478772891 heartbeat IPC: 0.36143 cumulative IPC: 0.38474 (Simulation time: 0 hr 8 min 6 sec) 
Heartbeat CPU  0 instructions:  244000000 cycles:  481380647 heartbeat IPC: 0.38347 cumulative IPC: 0.38473 (Simulation time: 0 hr 8 min 9 sec) 
Heartbeat CPU  0 instructions:  245000000 cycles:  483931695 heartbeat IPC: 0.39200 cumulative IPC: 0.38478 (Simulation time: 0 hr 8 min 11 sec) 
Heartbeat CPU  0 instructions:  246000001 cycles:  486671846 heartbeat IPC: 0.36494 cumulative IPC: 0.38463 (Simulation time: 0 hr 8 min 13 sec) 
Heartbeat CPU  0 instructions:  247000002 cycles:  489323505 heartbeat IPC: 0.37712 cumulative IPC: 0.38458 (Simulation time: 0 hr 8 min 16 sec) 
Heartbeat CPU  0 instructions:  248000000 cycles:  491908330 heartbeat IPC: 0.38687 cumulative IPC: 0.38460 (Simulation time: 0 hr 8 min 18 sec) 
Heartbeat CPU  0 instructions:  249000003 cycles:  494458305 heartbeat IPC: 0.39216 cumulative IPC: 0.38465 (Simulation time: 0 hr 8 min 20 sec) 
Heartbeat CPU  0 instructions:  250000000 cycles:  496859309 heartbeat IPC: 0.41649 cumulative IPC: 0.38484 (Simulation time: 0 hr 8 min 22 sec) 
Heartbeat CPU  0 instructions:  251000002 cycles:  499575481 heartbeat IPC: 0.36817 cumulative IPC: 0.38473 (Simulation time: 0 hr 8 min 24 sec) 
Heartbeat CPU  0 instructions:  252000000 cycles:  502282858 heartbeat IPC: 0.36936 cumulative IPC: 0.38462 (Simulation time: 0 hr 8 min 27 sec) 
Heartbeat CPU  0 instructions:  253000000 cycles:  505090555 heartbeat IPC: 0.35616 cumulative IPC: 0.38442 (Simulation time: 0 hr 8 min 29 sec) 
Heartbeat CPU  0 instructions:  254000002 cycles:  507809684 heartbeat IPC: 0.36777 cumulative IPC: 0.38431 (Simulation time: 0 hr 8 min 31 sec) 
Heartbeat CPU  0 instructions:  255000001 cycles:  510539948 heartbeat IPC: 0.36626 cumulative IPC: 0.38419 (Simulation time: 0 hr 8 min 34 sec) 
Heartbeat CPU  0 instructions:  256000000 cycles:  513271053 heartbeat IPC: 0.36615 cumulative IPC: 0.38407 (Simulation time: 0 hr 8 min 36 sec) 
Heartbeat CPU  0 instructions:  257000000 cycles:  515987639 heartbeat IPC: 0.36811 cumulative IPC: 0.38396 (Simulation time: 0 hr 8 min 38 sec) 
Heartbeat CPU  0 instructions:  258000000 cycles:  518697002 heartbeat IPC: 0.36909 cumulative IPC: 0.38386 (Simulation time: 0 hr 8 min 40 sec) 
Heartbeat CPU  0 instructions:  259000000 cycles:  521187139 heartbeat IPC: 0.40158 cumulative IPC: 0.38397 (Simulation time: 0 hr 8 min 43 sec) 
Heartbeat CPU  0 instructions:  260000000 cycles:  523861959 heartbeat IPC: 0.37386 cumulative IPC: 0.38390 (Simulation time: 0 hr 8 min 45 sec) 
Heartbeat CPU  0 instructions:  261000000 cycles:  526570218 heartbeat IPC: 0.36924 cumulative IPC: 0.38381 (Simulation time: 0 hr 8 min 47 sec) 
Heartbeat CPU  0 instructions:  262000000 cycles:  529297152 heartbeat IPC: 0.36671 cumulative IPC: 0.38370 (Simulation time: 0 hr 8 min 49 sec) 
Heartbeat CPU  0 instructions:  263000001 cycles:  531990068 heartbeat IPC: 0.37135 cumulative IPC: 0.38362 (Simulation time: 0 hr 8 min 52 sec) 
Heartbeat CPU  0 instructions:  264000000 cycles:  534623103 heartbeat IPC: 0.37979 cumulative IPC: 0.38360 (Simulation time: 0 hr 8 min 54 sec) 
Heartbeat CPU  0 instructions:  265000002 cycles:  537253568 heartbeat IPC: 0.38016 cumulative IPC: 0.38358 (Simulation time: 0 hr 8 min 56 sec) 
Heartbeat CPU  0 instructions:  266000002 cycles:  539900796 heartbeat IPC: 0.37775 cumulative IPC: 0.38354 (Simulation time: 0 hr 8 min 58 sec) 
Heartbeat CPU  0 instructions:  267000003 cycles:  542627236 heartbeat IPC: 0.36678 cumulative IPC: 0.38343 (Simulation time: 0 hr 9 min 1 sec) 
Heartbeat CPU  0 instructions:  268000000 cycles:  545369494 heartbeat IPC: 0.36466 cumulative IPC: 0.38332 (Simulation time: 0 hr 9 min 3 sec) 
Heartbeat CPU  0 instructions:  269000001 cycles:  548101051 heartbeat IPC: 0.36609 cumulative IPC: 0.38321 (Simulation time: 0 hr 9 min 5 sec) 
Heartbeat CPU  0 instructions:  270000001 cycles:  550805183 heartbeat IPC: 0.36980 cumulative IPC: 0.38313 (Simulation time: 0 hr 9 min 7 sec) 
Heartbeat CPU  0 instructions:  271000003 cycles:  553498976 heartbeat IPC: 0.37122 cumulative IPC: 0.38306 (Simulation time: 0 hr 9 min 10 sec) 
Heartbeat CPU  0 instructions:  272000000 cycles:  556225237 heartbeat IPC: 0.36680 cumulative IPC: 0.38296 (Simulation time: 0 hr 9 min 12 sec) 
Heartbeat CPU  0 instructions:  273000001 cycles:  558914367 heartbeat IPC: 0.37187 cumulative IPC: 0.38289 (Simulation time: 0 hr 9 min 14 sec) 
Heartbeat CPU  0 instructions:  274000003 cycles:  561695419 heartbeat IPC: 0.35958 cumulative IPC: 0.38275 (Simulation time: 0 hr 9 min 16 sec) 
Heartbeat CPU  0 instructions:  275000002 cycles:  564425421 heartbeat IPC: 0.36630 cumulative IPC: 0.38265 (Simulation time: 0 hr 9 min 19 sec) 
Heartbeat CPU  0 instructions:  276000000 cycles:  567087903 heartbeat IPC: 0.37559 cumulative IPC: 0.38261 (Simulation time: 0 hr 9 min 21 sec) 
Heartbeat CPU  0 instructions:  277000000 cycles:  569658592 heartbeat IPC: 0.38900 cumulative IPC: 0.38265 (Simulation time: 0 hr 9 min 23 sec) 
Heartbeat CPU  0 instructions:  278000001 cycles:  572145708 heartbeat IPC: 0.40207 cumulative IPC: 0.38275 (Simulation time: 0 hr 9 min 25 sec) 
Heartbeat CPU  0 instructions:  279000002 cycles:  574722352 heartbeat IPC: 0.38810 cumulative IPC: 0.38278 (Simulation time: 0 hr 9 min 28 sec) 
Heartbeat CPU  0 instructions:  280000000 cycles:  577424337 heartbeat IPC: 0.37010 cumulative IPC: 0.38271 (Simulation time: 0 hr 9 min 30 sec) 
Heartbeat CPU  0 instructions:  281000002 cycles:  580148002 heartbeat IPC: 0.36715 cumulative IPC: 0.38262 (Simulation time: 0 hr 9 min 32 sec) 
Heartbeat CPU  0 instructions:  282000003 cycles:  582788291 heartbeat IPC: 0.37875 cumulative IPC: 0.38260 (Simulation time: 0 hr 9 min 35 sec) 
Heartbeat CPU  0 instructions:  283000001 cycles:  585246537 heartbeat IPC: 0.40679 cumulative IPC: 0.38272 (Simulation time: 0 hr 9 min 37 sec) 
Heartbeat CPU  0 instructions:  284000000 cycles:  587858675 heartbeat IPC: 0.38283 cumulative IPC: 0.38272 (Simulation time: 0 hr 9 min 39 sec) 
Heartbeat CPU  0 instructions:  285000001 cycles:  590526097 heartbeat IPC: 0.37489 cumulative IPC: 0.38268 (Simulation time: 0 hr 9 min 41 sec) 
Heartbeat CPU  0 instructions:  286000000 cycles:  593011958 heartbeat IPC: 0.40227 cumulative IPC: 0.38278 (Simulation time: 0 hr 9 min 44 sec) 
Heartbeat CPU  0 instructions:  287000002 cycles:  595577806 heartbeat IPC: 0.38974 cumulative IPC: 0.38281 (Simulation time: 0 hr 9 min 46 sec) 
Heartbeat CPU  0 instructions:  288000000 cycles:  598289104 heartbeat IPC: 0.36883 cumulative IPC: 0.38274 (Simulation time: 0 hr 9 min 48 sec) 
Heartbeat CPU  0 instructions:  289000000 cycles:  601043886 heartbeat IPC: 0.36301 cumulative IPC: 0.38263 (Simulation time: 0 hr 9 min 50 sec) 
Heartbeat CPU  0 instructions:  290000002 cycles:  603612346 heartbeat IPC: 0.38934 cumulative IPC: 0.38266 (Simulation time: 0 hr 9 min 52 sec) 
Heartbeat CPU  0 instructions:  291000000 cycles:  606484789 heartbeat IPC: 0.34814 cumulative IPC: 0.38246 (Simulation time: 0 hr 9 min 55 sec) 
Heartbeat CPU  0 instructions:  292000000 cycles:  609302370 heartbeat IPC: 0.35491 cumulative IPC: 0.38231 (Simulation time: 0 hr 9 min 57 sec) 
Heartbeat CPU  0 instructions:  293000000 cycles:  612080736 heartbeat IPC: 0.35992 cumulative IPC: 0.38219 (Simulation time: 0 hr 9 min 59 sec) 
Heartbeat CPU  0 instructions:  294000002 cycles:  614830517 heartbeat IPC: 0.36367 cumulative IPC: 0.38209 (Simulation time: 0 hr 10 min 2 sec) 
Heartbeat CPU  0 instructions:  295000001 cycles:  617528858 heartbeat IPC: 0.37060 cumulative IPC: 0.38202 (Simulation time: 0 hr 10 min 4 sec) 
Heartbeat CPU  0 instructions:  296000000 cycles:  620276481 heartbeat IPC: 0.36395 cumulative IPC: 0.38193 (Simulation time: 0 hr 10 min 6 sec) 
Heartbeat CPU  0 instructions:  297000000 cycles:  622988207 heartbeat IPC: 0.36877 cumulative IPC: 0.38186 (Simulation time: 0 hr 10 min 8 sec) 
Heartbeat CPU  0 instructions:  298000000 cycles:  625657612 heartbeat IPC: 0.37462 cumulative IPC: 0.38182 (Simulation time: 0 hr 10 min 11 sec) 
Heartbeat CPU  0 instructions:  299000000 cycles:  628435554 heartbeat IPC: 0.35998 cumulative IPC: 0.38170 (Simulation time: 0 hr 10 min 13 sec) 
Heartbeat CPU  0 instructions:  300000000 cycles:  631106901 heartbeat IPC: 0.37434 cumulative IPC: 0.38167 (Simulation time: 0 hr 10 min 15 sec) 
Heartbeat CPU  0 instructions:  301000000 cycles:  633872276 heartbeat IPC: 0.36161 cumulative IPC: 0.38156 (Simulation time: 0 hr 10 min 17 sec) 
Heartbeat CPU  0 instructions:  302000000 cycles:  636615189 heartbeat IPC: 0.36458 cumulative IPC: 0.38147 (Simulation time: 0 hr 10 min 20 sec) 
Heartbeat CPU  0 instructions:  303000000 cycles:  639490507 heartbeat IPC: 0.34779 cumulative IPC: 0.38129 (Simulation time: 0 hr 10 min 22 sec) 
Heartbeat CPU  0 instructions:  304000000 cycles:  642206928 heartbeat IPC: 0.36813 cumulative IPC: 0.38123 (Simulation time: 0 hr 10 min 24 sec) 
Heartbeat CPU  0 instructions:  305000002 cycles:  644835473 heartbeat IPC: 0.38044 cumulative IPC: 0.38122 (Simulation time: 0 hr 10 min 26 sec) 
Heartbeat CPU  0 instructions:  306000000 cycles:  647723415 heartbeat IPC: 0.34627 cumulative IPC: 0.38103 (Simulation time: 0 hr 10 min 29 sec) 
Heartbeat CPU  0 instructions:  307000000 cycles:  650442809 heartbeat IPC: 0.36773 cumulative IPC: 0.38097 (Simulation time: 0 hr 10 min 31 sec) 
Heartbeat CPU  0 instructions:  308000000 cycles:  653156490 heartbeat IPC: 0.36850 cumulative IPC: 0.38091 (Simulation time: 0 hr 10 min 33 sec) 
Heartbeat CPU  0 instructions:  309000000 cycles:  655830626 heartbeat IPC: 0.37395 cumulative IPC: 0.38087 (Simulation time: 0 hr 10 min 35 sec) 
Heartbeat CPU  0 instructions:  310000000 cycles:  658252520 heartbeat IPC: 0.41290 cumulative IPC: 0.38101 (Simulation time: 0 hr 10 min 37 sec) 
Heartbeat CPU  0 instructions:  311000000 cycles:  660134889 heartbeat IPC: 0.53125 cumulative IPC: 0.38152 (Simulation time: 0 hr 10 min 39 sec) 
Heartbeat CPU  0 instructions:  312000000 cycles:  662767695 heartbeat IPC: 0.37982 cumulative IPC: 0.38152 (Simulation time: 0 hr 10 min 42 sec) 
Heartbeat CPU  0 instructions:  313000002 cycles:  665514237 heartbeat IPC: 0.36409 cumulative IPC: 0.38143 (Simulation time: 0 hr 10 min 44 sec) 
Heartbeat CPU  0 instructions:  314000002 cycles:  668248164 heartbeat IPC: 0.36577 cumulative IPC: 0.38135 (Simulation time: 0 hr 10 min 46 sec) 
Heartbeat CPU  0 instructions:  315000001 cycles:  671010455 heartbeat IPC: 0.36202 cumulative IPC: 0.38126 (Simulation time: 0 hr 10 min 48 sec) 
Heartbeat CPU  0 instructions:  316000000 cycles:  673820182 heartbeat IPC: 0.35591 cumulative IPC: 0.38113 (Simulation time: 0 hr 10 min 51 sec) 
Heartbeat CPU  0 instructions:  317000003 cycles:  676572078 heartbeat IPC: 0.36339 cumulative IPC: 0.38105 (Simulation time: 0 hr 10 min 53 sec) 
Heartbeat CPU  0 instructions:  318000000 cycles:  679284419 heartbeat IPC: 0.36868 cumulative IPC: 0.38099 (Simulation time: 0 hr 10 min 55 sec) 
Heartbeat CPU  0 instructions:  319000000 cycles:  681923688 heartbeat IPC: 0.37889 cumulative IPC: 0.38098 (Simulation time: 0 hr 10 min 57 sec) 
Heartbeat CPU  0 instructions:  320000000 cycles:  684600665 heartbeat IPC: 0.37356 cumulative IPC: 0.38095 (Simulation time: 0 hr 11 min 0 sec) 
Heartbeat CPU  0 instructions:  321000003 cycles:  687325878 heartbeat IPC: 0.36694 cumulative IPC: 0.38088 (Simulation time: 0 hr 11 min 2 sec) 
Heartbeat CPU  0 instructions:  322000002 cycles:  689937724 heartbeat IPC: 0.38287 cumulative IPC: 0.38089 (Simulation time: 0 hr 11 min 4 sec) 
Heartbeat CPU  0 instructions:  323000000 cycles:  692559632 heartbeat IPC: 0.38140 cumulative IPC: 0.38089 (Simulation time: 0 hr 11 min 6 sec) 
Heartbeat CPU  0 instructions:  324000000 cycles:  694616888 heartbeat IPC: 0.48608 cumulative IPC: 0.38126 (Simulation time: 0 hr 11 min 8 sec) 
Heartbeat CPU  0 instructions:  325000001 cycles:  697010586 heartbeat IPC: 0.41776 cumulative IPC: 0.38141 (Simulation time: 0 hr 11 min 10 sec) 
Heartbeat CPU  0 instructions:  326000000 cycles:  699474679 heartbeat IPC: 0.40583 cumulative IPC: 0.38151 (Simulation time: 0 hr 11 min 13 sec) 
Heartbeat CPU  0 instructions:  327000000 cycles:  701899222 heartbeat IPC: 0.41245 cumulative IPC: 0.38164 (Simulation time: 0 hr 11 min 15 sec) 
Heartbeat CPU  0 instructions:  328000000 cycles:  704572291 heartbeat IPC: 0.37410 cumulative IPC: 0.38160 (Simulation time: 0 hr 11 min 17 sec) 
Heartbeat CPU  0 instructions:  329000003 cycles:  707069500 heartbeat IPC: 0.40045 cumulative IPC: 0.38168 (Simulation time: 0 hr 11 min 19 sec) 
Heartbeat CPU  0 instructions:  330000001 cycles:  709415851 heartbeat IPC: 0.42619 cumulative IPC: 0.38185 (Simulation time: 0 hr 11 min 21 sec) 
Heartbeat CPU  0 instructions:  331000001 cycles:  711785597 heartbeat IPC: 0.42199 cumulative IPC: 0.38201 (Simulation time: 0 hr 11 min 24 sec) 
Heartbeat CPU  0 instructions:  332000000 cycles:  714375598 heartbeat IPC: 0.38610 cumulative IPC: 0.38203 (Simulation time: 0 hr 11 min 26 sec) 
Heartbeat CPU  0 instructions:  333000000 cycles:  716955828 heartbeat IPC: 0.38756 cumulative IPC: 0.38205 (Simulation time: 0 hr 11 min 28 sec) 
Heartbeat CPU  0 instructions:  334000001 cycles:  719501062 heartbeat IPC: 0.39289 cumulative IPC: 0.38210 (Simulation time: 0 hr 11 min 30 sec) 
Heartbeat CPU  0 instructions:  335000000 cycles:  722108017 heartbeat IPC: 0.38359 cumulative IPC: 0.38210 (Simulation time: 0 hr 11 min 33 sec) 
Heartbeat CPU  0 instructions:  336000000 cycles:  724508376 heartbeat IPC: 0.41660 cumulative IPC: 0.38224 (Simulation time: 0 hr 11 min 35 sec) 
Heartbeat CPU  0 instructions:  337000000 cycles:  726898532 heartbeat IPC: 0.41838 cumulative IPC: 0.38238 (Simulation time: 0 hr 11 min 37 sec) 
Heartbeat CPU  0 instructions:  338000001 cycles:  729376149 heartbeat IPC: 0.40361 cumulative IPC: 0.38246 (Simulation time: 0 hr 11 min 39 sec) 
Heartbeat CPU  0 instructions:  339000000 cycles:  731840711 heartbeat IPC: 0.40575 cumulative IPC: 0.38255 (Simulation time: 0 hr 11 min 41 sec) 
Heartbeat CPU  0 instructions:  340000000 cycles:  734463930 heartbeat IPC: 0.38121 cumulative IPC: 0.38255 (Simulation time: 0 hr 11 min 44 sec) 
Heartbeat CPU  0 instructions:  341000002 cycles:  737072250 heartbeat IPC: 0.38339 cumulative IPC: 0.38255 (Simulation time: 0 hr 11 min 46 sec) 
Heartbeat CPU  0 instructions:  342000001 cycles:  739834816 heartbeat IPC: 0.36198 cumulative IPC: 0.38246 (Simulation time: 0 hr 11 min 48 sec) 
Heartbeat CPU  0 instructions:  343000003 cycles:  742427299 heartbeat IPC: 0.38573 cumulative IPC: 0.38247 (Simulation time: 0 hr 11 min 50 sec) 
Heartbeat CPU  0 instructions:  344000000 cycles:  744956527 heartbeat IPC: 0.39538 cumulative IPC: 0.38253 (Simulation time: 0 hr 11 min 53 sec) 
Heartbeat CPU  0 instructions:  345000003 cycles:  747751616 heartbeat IPC: 0.35777 cumulative IPC: 0.38242 (Simulation time: 0 hr 11 min 55 sec) 
Heartbeat CPU  0 instructions:  346000001 cycles:  750474482 heartbeat IPC: 0.36726 cumulative IPC: 0.38235 (Simulation time: 0 hr 11 min 57 sec) 
Heartbeat CPU  0 instructions:  347000002 cycles:  752965040 heartbeat IPC: 0.40152 cumulative IPC: 0.38243 (Simulation time: 0 hr 11 min 59 sec) 
Heartbeat CPU  0 instructions:  348000000 cycles:  755332596 heartbeat IPC: 0.42238 cumulative IPC: 0.38257 (Simulation time: 0 hr 12 min 1 sec) 
Heartbeat CPU  0 instructions:  349000000 cycles:  757970495 heartbeat IPC: 0.37909 cumulative IPC: 0.38256 (Simulation time: 0 hr 12 min 4 sec) 
Heartbeat CPU  0 instructions:  350000001 cycles:  760491142 heartbeat IPC: 0.39672 cumulative IPC: 0.38261 (Simulation time: 0 hr 12 min 6 sec) 
Heartbeat CPU  0 instructions:  351000000 cycles:  763293936 heartbeat IPC: 0.35679 cumulative IPC: 0.38250 (Simulation time: 0 hr 12 min 8 sec) 
Heartbeat CPU  0 instructions:  352000000 cycles:  765973301 heartbeat IPC: 0.37322 cumulative IPC: 0.38247 (Simulation time: 0 hr 12 min 11 sec) 
Heartbeat CPU  0 instructions:  353000002 cycles:  768545004 heartbeat IPC: 0.38885 cumulative IPC: 0.38249 (Simulation time: 0 hr 12 min 13 sec) 
Heartbeat CPU  0 instructions:  354000000 cycles:  771198106 heartbeat IPC: 0.37692 cumulative IPC: 0.38247 (Simulation time: 0 hr 12 min 15 sec) 
Heartbeat CPU  0 instructions:  355000003 cycles:  773939810 heartbeat IPC: 0.36474 cumulative IPC: 0.38240 (Simulation time: 0 hr 12 min 17 sec) 
Heartbeat CPU  0 instructions:  356000000 cycles:  776673761 heartbeat IPC: 0.36577 cumulative IPC: 0.38233 (Simulation time: 0 hr 12 min 20 sec) 
Heartbeat CPU  0 instructions:  357000000 cycles:  779348035 heartbeat IPC: 0.37393 cumulative IPC: 0.38229 (Simulation time: 0 hr 12 min 22 sec) 
Heartbeat CPU  0 instructions:  358000000 cycles:  782052459 heartbeat IPC: 0.36976 cumulative IPC: 0.38224 (Simulation time: 0 hr 12 min 24 sec) 
Heartbeat CPU  0 instructions:  359000000 cycles:  784739950 heartbeat IPC: 0.37209 cumulative IPC: 0.38220 (Simulation time: 0 hr 12 min 26 sec) 
Heartbeat CPU  0 instructions:  360000000 cycles:  787417538 heartbeat IPC: 0.37347 cumulative IPC: 0.38217 (Simulation time: 0 hr 12 min 29 sec) 
Heartbeat CPU  0 instructions:  361000000 cycles:  789951038 heartbeat IPC: 0.39471 cumulative IPC: 0.38222 (Simulation time: 0 hr 12 min 31 sec) 
Heartbeat CPU  0 instructions:  362000000 cycles:  792847696 heartbeat IPC: 0.34523 cumulative IPC: 0.38206 (Simulation time: 0 hr 12 min 33 sec) 
Heartbeat CPU  0 instructions:  363000000 cycles:  795630512 heartbeat IPC: 0.35935 cumulative IPC: 0.38197 (Simulation time: 0 hr 12 min 35 sec) 
Heartbeat CPU  0 instructions:  364000000 cycles:  798011372 heartbeat IPC: 0.42002 cumulative IPC: 0.38210 (Simulation time: 0 hr 12 min 38 sec) 
Heartbeat CPU  0 instructions:  365000000 cycles:  800411045 heartbeat IPC: 0.41672 cumulative IPC: 0.38222 (Simulation time: 0 hr 12 min 40 sec) 
Heartbeat CPU  0 instructions:  366000002 cycles:  802248370 heartbeat IPC: 0.54427 cumulative IPC: 0.38265 (Simulation time: 0 hr 12 min 42 sec) 
Heartbeat CPU  0 instructions:  367000000 cycles:  803995247 heartbeat IPC: 0.57245 cumulative IPC: 0.38312 (Simulation time: 0 hr 12 min 43 sec) 
Heartbeat CPU  0 instructions:  368000000 cycles:  806601844 heartbeat IPC: 0.38364 cumulative IPC: 0.38312 (Simulation time: 0 hr 12 min 46 sec) 
Heartbeat CPU  0 instructions:  369000000 cycles:  809378586 heartbeat IPC: 0.36013 cumulative IPC: 0.38303 (Simulation time: 0 hr 12 min 48 sec) 
Heartbeat CPU  0 instructions:  370000000 cycles:  812215996 heartbeat IPC: 0.35243 cumulative IPC: 0.38291 (Simulation time: 0 hr 12 min 50 sec) 
Heartbeat CPU  0 instructions:  371000003 cycles:  814877136 heartbeat IPC: 0.37578 cumulative IPC: 0.38288 (Simulation time: 0 hr 12 min 52 sec) 
Heartbeat CPU  0 instructions:  372000000 cycles:  817535954 heartbeat IPC: 0.37611 cumulative IPC: 0.38286 (Simulation time: 0 hr 12 min 55 sec) 
Heartbeat CPU  0 instructions:  373000002 cycles:  820198507 heartbeat IPC: 0.37558 cumulative IPC: 0.38283 (Simulation time: 0 hr 12 min 57 sec) 
Heartbeat CPU  0 instructions:  374000001 cycles:  822992105 heartbeat IPC: 0.35796 cumulative IPC: 0.38273 (Simulation time: 0 hr 12 min 59 sec) 
Heartbeat CPU  0 instructions:  375000000 cycles:  825764082 heartbeat IPC: 0.36075 cumulative IPC: 0.38265 (Simulation time: 0 hr 13 min 1 sec) 
Heartbeat CPU  0 instructions:  376000000 cycles:  828539276 heartbeat IPC: 0.36034 cumulative IPC: 0.38256 (Simulation time: 0 hr 13 min 4 sec) 
Heartbeat CPU  0 instructions:  377000002 cycles:  831306273 heartbeat IPC: 0.36140 cumulative IPC: 0.38248 (Simulation time: 0 hr 13 min 6 sec) 
Heartbeat CPU  0 instructions:  378000001 cycles:  834067546 heartbeat IPC: 0.36215 cumulative IPC: 0.38241 (Simulation time: 0 hr 13 min 8 sec) 
Heartbeat CPU  0 instructions:  379000000 cycles:  836920999 heartbeat IPC: 0.35045 cumulative IPC: 0.38228 (Simulation time: 0 hr 13 min 10 sec) 
Heartbeat CPU  0 instructions:  380000000 cycles:  839749373 heartbeat IPC: 0.35356 cumulative IPC: 0.38217 (Simulation time: 0 hr 13 min 13 sec) 
Heartbeat CPU  0 instructions:  381000002 cycles:  842579636 heartbeat IPC: 0.35332 cumulative IPC: 0.38206 (Simulation time: 0 hr 13 min 15 sec) 
Heartbeat CPU  0 instructions:  382000000 cycles:  845289112 heartbeat IPC: 0.36907 cumulative IPC: 0.38201 (Simulation time: 0 hr 13 min 17 sec) 
Heartbeat CPU  0 instructions:  383000001 cycles:  848000695 heartbeat IPC: 0.36879 cumulative IPC: 0.38196 (Simulation time: 0 hr 13 min 19 sec) 
Heartbeat CPU  0 instructions:  384000000 cycles:  850798946 heartbeat IPC: 0.35737 cumulative IPC: 0.38187 (Simulation time: 0 hr 13 min 22 sec) 
Heartbeat CPU  0 instructions:  385000002 cycles:  853518944 heartbeat IPC: 0.36765 cumulative IPC: 0.38182 (Simulation time: 0 hr 13 min 24 sec) 
Heartbeat CPU  0 instructions:  386000000 cycles:  856092304 heartbeat IPC: 0.38860 cumulative IPC: 0.38184 (Simulation time: 0 hr 13 min 26 sec) 
Heartbeat CPU  0 instructions:  387000000 cycles:  858701853 heartbeat IPC: 0.38321 cumulative IPC: 0.38185 (Simulation time: 0 hr 13 min 28 sec) 
Heartbeat CPU  0 instructions:  388000000 cycles:  861514861 heartbeat IPC: 0.35549 cumulative IPC: 0.38175 (Simulation time: 0 hr 13 min 31 sec) 
Heartbeat CPU  0 instructions:  389000000 cycles:  864180745 heartbeat IPC: 0.37511 cumulative IPC: 0.38172 (Simulation time: 0 hr 13 min 33 sec) 
Heartbeat CPU  0 instructions:  390000001 cycles:  867019252 heartbeat IPC: 0.35230 cumulative IPC: 0.38161 (Simulation time: 0 hr 13 min 35 sec) 
Heartbeat CPU  0 instructions:  391000001 cycles:  869758396 heartbeat IPC: 0.36508 cumulative IPC: 0.38156 (Simulation time: 0 hr 13 min 37 sec) 
Heartbeat CPU  0 instructions:  392000000 cycles:  872379865 heartbeat IPC: 0.38147 cumulative IPC: 0.38155 (Simulation time: 0 hr 13 min 40 sec) 
Heartbeat CPU  0 instructions:  393000001 cycles:  875169873 heartbeat IPC: 0.35842 cumulative IPC: 0.38147 (Simulation time: 0 hr 13 min 42 sec) 
Heartbeat CPU  0 instructions:  394000002 cycles:  877882842 heartbeat IPC: 0.36860 cumulative IPC: 0.38143 (Simulation time: 0 hr 13 min 44 sec) 
Heartbeat CPU  0 instructions:  395000000 cycles:  880487669 heartbeat IPC: 0.38390 cumulative IPC: 0.38143 (Simulation time: 0 hr 13 min 46 sec) 
Heartbeat CPU  0 instructions:  396000000 cycles:  883318804 heartbeat IPC: 0.35322 cumulative IPC: 0.38133 (Simulation time: 0 hr 13 min 48 sec) 
Heartbeat CPU  0 instructions:  397000000 cycles:  886090265 heartbeat IPC: 0.36082 cumulative IPC: 0.38126 (Simulation time: 0 hr 13 min 51 sec) 
Heartbeat CPU  0 instructions:  398000000 cycles:  888625449 heartbeat IPC: 0.39445 cumulative IPC: 0.38130 (Simulation time: 0 hr 13 min 53 sec) 
Heartbeat CPU  0 instructions:  399000000 cycles:  891426454 heartbeat IPC: 0.35701 cumulative IPC: 0.38121 (Simulation time: 0 hr 13 min 55 sec) 
Heartbeat CPU  0 instructions:  400000000 cycles:  893978961 heartbeat IPC: 0.39177 cumulative IPC: 0.38125 (Simulation time: 0 hr 13 min 57 sec) 
Heartbeat CPU  0 instructions:  401000003 cycles:  896696178 heartbeat IPC: 0.36802 cumulative IPC: 0.38120 (Simulation time: 0 hr 14 min 0 sec) 
Heartbeat CPU  0 instructions:  402000001 cycles:  899254612 heartbeat IPC: 0.39086 cumulative IPC: 0.38123 (Simulation time: 0 hr 14 min 2 sec) 
Heartbeat CPU  0 instructions:  403000001 cycles:  901740445 heartbeat IPC: 0.40228 cumulative IPC: 0.38130 (Simulation time: 0 hr 14 min 4 sec) 
Heartbeat CPU  0 instructions:  404000000 cycles:  904607759 heartbeat IPC: 0.34876 cumulative IPC: 0.38118 (Simulation time: 0 hr 14 min 6 sec) 
Heartbeat CPU  0 instructions:  405000001 cycles:  907446659 heartbeat IPC: 0.35225 cumulative IPC: 0.38108 (Simulation time: 0 hr 14 min 8 sec) 
Heartbeat CPU  0 instructions:  406000002 cycles:  910285531 heartbeat IPC: 0.35225 cumulative IPC: 0.38098 (Simulation time: 0 hr 14 min 11 sec) 
Heartbeat CPU  0 instructions:  407000000 cycles:  912947372 heartbeat IPC: 0.37568 cumulative IPC: 0.38096 (Simulation time: 0 hr 14 min 13 sec) 
Heartbeat CPU  0 instructions:  408000000 cycles:  915708656 heartbeat IPC: 0.36215 cumulative IPC: 0.38090 (Simulation time: 0 hr 14 min 15 sec) 
Heartbeat CPU  0 instructions:  409000003 cycles:  918445468 heartbeat IPC: 0.36539 cumulative IPC: 0.38084 (Simulation time: 0 hr 14 min 17 sec) 
Heartbeat CPU  0 instructions:  410000002 cycles:  921100755 heartbeat IPC: 0.37661 cumulative IPC: 0.38083 (Simulation time: 0 hr 14 min 19 sec) 
Heartbeat CPU  0 instructions:  411000000 cycles:  923872956 heartbeat IPC: 0.36072 cumulative IPC: 0.38076 (Simulation time: 0 hr 14 min 22 sec) 
Heartbeat CPU  0 instructions:  412000000 cycles:  926552614 heartbeat IPC: 0.37318 cumulative IPC: 0.38074 (Simulation time: 0 hr 14 min 24 sec) 
Heartbeat CPU  0 instructions:  413000001 cycles:  929362710 heartbeat IPC: 0.35586 cumulative IPC: 0.38065 (Simulation time: 0 hr 14 min 26 sec) 
Heartbeat CPU  0 instructions:  414000003 cycles:  932016450 heartbeat IPC: 0.37683 cumulative IPC: 0.38064 (Simulation time: 0 hr 14 min 28 sec) 
Heartbeat CPU  0 instructions:  415000002 cycles:  934687295 heartbeat IPC: 0.37441 cumulative IPC: 0.38062 (Simulation time: 0 hr 14 min 31 sec) 
Heartbeat CPU  0 instructions:  416000000 cycles:  937378066 heartbeat IPC: 0.37164 cumulative IPC: 0.38059 (Simulation time: 0 hr 14 min 33 sec) 
Heartbeat CPU  0 instructions:  417000003 cycles:  940126830 heartbeat IPC: 0.36380 cumulative IPC: 0.38054 (Simulation time: 0 hr 14 min 35 sec) 
Heartbeat CPU  0 instructions:  418000001 cycles:  942893769 heartbeat IPC: 0.36141 cumulative IPC: 0.38047 (Simulation time: 0 hr 14 min 37 sec) 
Heartbeat CPU  0 instructions:  419000000 cycles:  945714623 heartbeat IPC: 0.35450 cumulative IPC: 0.38038 (Simulation time: 0 hr 14 min 39 sec) 
Heartbeat CPU  0 instructions:  420000000 cycles:  948462124 heartbeat IPC: 0.36397 cumulative IPC: 0.38033 (Simulation time: 0 hr 14 min 42 sec) 
Heartbeat CPU  0 instructions:  421000000 cycles:  950991286 heartbeat IPC: 0.39539 cumulative IPC: 0.38038 (Simulation time: 0 hr 14 min 44 sec) 
Heartbeat CPU  0 instructions:  422000001 cycles:  953819637 heartbeat IPC: 0.35356 cumulative IPC: 0.38029 (Simulation time: 0 hr 14 min 46 sec) 
Heartbeat CPU  0 instructions:  423000003 cycles:  956526382 heartbeat IPC: 0.36945 cumulative IPC: 0.38025 (Simulation time: 0 hr 14 min 48 sec) 
Heartbeat CPU  0 instructions:  424000000 cycles:  959116283 heartbeat IPC: 0.38611 cumulative IPC: 0.38027 (Simulation time: 0 hr 14 min 50 sec) 
Heartbeat CPU  0 instructions:  425000001 cycles:  961844599 heartbeat IPC: 0.36653 cumulative IPC: 0.38023 (Simulation time: 0 hr 14 min 53 sec) 
Heartbeat CPU  0 instructions:  426000003 cycles:  964349861 heartbeat IPC: 0.39916 cumulative IPC: 0.38028 (Simulation time: 0 hr 14 min 55 sec) 
Heartbeat CPU  0 instructions:  427000002 cycles:  966944591 heartbeat IPC: 0.38540 cumulative IPC: 0.38030 (Simulation time: 0 hr 14 min 57 sec) 
Heartbeat CPU  0 instructions:  428000000 cycles:  969532039 heartbeat IPC: 0.38648 cumulative IPC: 0.38032 (Simulation time: 0 hr 14 min 59 sec) 
Heartbeat CPU  0 instructions:  429000003 cycles:  972090280 heartbeat IPC: 0.39089 cumulative IPC: 0.38035 (Simulation time: 0 hr 15 min 1 sec) 
Heartbeat CPU  0 instructions:  430000002 cycles:  974852004 heartbeat IPC: 0.36209 cumulative IPC: 0.38029 (Simulation time: 0 hr 15 min 3 sec) 
Heartbeat CPU  0 instructions:  431000001 cycles:  977371101 heartbeat IPC: 0.39697 cumulative IPC: 0.38034 (Simulation time: 0 hr 15 min 6 sec) 
Heartbeat CPU  0 instructions:  432000000 cycles:  980077066 heartbeat IPC: 0.36955 cumulative IPC: 0.38030 (Simulation time: 0 hr 15 min 8 sec) 
Heartbeat CPU  0 instructions:  433000003 cycles:  982768494 heartbeat IPC: 0.37155 cumulative IPC: 0.38028 (Simulation time: 0 hr 15 min 10 sec) 
Heartbeat CPU  0 instructions:  434000000 cycles:  985336486 heartbeat IPC: 0.38941 cumulative IPC: 0.38030 (Simulation time: 0 hr 15 min 12 sec) 
Heartbeat CPU  0 instructions:  435000000 cycles:  988135544 heartbeat IPC: 0.35726 cumulative IPC: 0.38023 (Simulation time: 0 hr 15 min 14 sec) 
Heartbeat CPU  0 instructions:  436000000 cycles:  990470748 heartbeat IPC: 0.42823 cumulative IPC: 0.38036 (Simulation time: 0 hr 15 min 16 sec) 
Heartbeat CPU  0 instructions:  437000003 cycles:  993045995 heartbeat IPC: 0.38831 cumulative IPC: 0.38038 (Simulation time: 0 hr 15 min 19 sec) 
Heartbeat CPU  0 instructions:  438000001 cycles:  995911418 heartbeat IPC: 0.34899 cumulative IPC: 0.38028 (Simulation time: 0 hr 15 min 21 sec) 
Heartbeat CPU  0 instructions:  439000000 cycles:  998799997 heartbeat IPC: 0.34619 cumulative IPC: 0.38017 (Simulation time: 0 hr 15 min 23 sec) 
Heartbeat CPU  0 instructions:  440000000 cycles: 1001564530 heartbeat IPC: 0.36172 cumulative IPC: 0.38011 (Simulation time: 0 hr 15 min 26 sec) 
Heartbeat CPU  0 instructions:  441000003 cycles: 1004344658 heartbeat IPC: 0.35970 cumulative IPC: 0.38005 (Simulation time: 0 hr 15 min 28 sec) 
Heartbeat CPU  0 instructions:  442000002 cycles: 1007104489 heartbeat IPC: 0.36234 cumulative IPC: 0.37999 (Simulation time: 0 hr 15 min 30 sec) 
Heartbeat CPU  0 instructions:  443000001 cycles: 1009937834 heartbeat IPC: 0.35294 cumulative IPC: 0.37991 (Simulation time: 0 hr 15 min 32 sec) 
Heartbeat CPU  0 instructions:  444000000 cycles: 1012714042 heartbeat IPC: 0.36020 cumulative IPC: 0.37985 (Simulation time: 0 hr 15 min 35 sec) 
Heartbeat CPU  0 instructions:  445000000 cycles: 1015575453 heartbeat IPC: 0.34948 cumulative IPC: 0.37975 (Simulation time: 0 hr 15 min 37 sec) 
Heartbeat CPU  0 instructions:  446000000 cycles: 1018425276 heartbeat IPC: 0.35090 cumulative IPC: 0.37966 (Simulation time: 0 hr 15 min 39 sec) 
Heartbeat CPU  0 instructions:  447000000 cycles: 1021217545 heartbeat IPC: 0.35813 cumulative IPC: 0.37960 (Simulation time: 0 hr 15 min 42 sec) 
Heartbeat CPU  0 instructions:  448000000 cycles: 1023742745 heartbeat IPC: 0.39601 cumulative IPC: 0.37964 (Simulation time: 0 hr 15 min 44 sec) 
Heartbeat CPU  0 instructions:  449000001 cycles: 1026608749 heartbeat IPC: 0.34892 cumulative IPC: 0.37955 (Simulation time: 0 hr 15 min 46 sec) 
Heartbeat CPU  0 instructions:  450000002 cycles: 1029379651 heartbeat IPC: 0.36089 cumulative IPC: 0.37949 (Simulation time: 0 hr 15 min 48 sec) 
Heartbeat CPU  0 instructions:  451000001 cycles: 1032067369 heartbeat IPC: 0.37206 cumulative IPC: 0.37947 (Simulation time: 0 hr 15 min 51 sec) 
Heartbeat CPU  0 instructions:  452000000 cycles: 1034887220 heartbeat IPC: 0.35463 cumulative IPC: 0.37939 (Simulation time: 0 hr 15 min 53 sec) 
Heartbeat CPU  0 instructions:  453000001 cycles: 1037682567 heartbeat IPC: 0.35774 cumulative IPC: 0.37933 (Simulation time: 0 hr 15 min 55 sec) 
Heartbeat CPU  0 instructions:  454000003 cycles: 1040537558 heartbeat IPC: 0.35026 cumulative IPC: 0.37924 (Simulation time: 0 hr 15 min 57 sec) 
Heartbeat CPU  0 instructions:  455000000 cycles: 1043250163 heartbeat IPC: 0.36865 cumulative IPC: 0.37921 (Simulation time: 0 hr 16 min 0 sec) 
Heartbeat CPU  0 instructions:  456000000 cycles: 1046072395 heartbeat IPC: 0.35433 cumulative IPC: 0.37913 (Simulation time: 0 hr 16 min 2 sec) 
Heartbeat CPU  0 instructions:  457000000 cycles: 1048797124 heartbeat IPC: 0.36701 cumulative IPC: 0.37910 (Simulation time: 0 hr 16 min 4 sec) 
Heartbeat CPU  0 instructions:  458000003 cycles: 1051586182 heartbeat IPC: 0.35855 cumulative IPC: 0.37904 (Simulation time: 0 hr 16 min 6 sec) 
Heartbeat CPU  0 instructions:  459000001 cycles: 1054321492 heartbeat IPC: 0.36559 cumulative IPC: 0.37900 (Simulation time: 0 hr 16 min 9 sec) 
Heartbeat CPU  0 instructions:  460000000 cycles: 1057050372 heartbeat IPC: 0.36645 cumulative IPC: 0.37896 (Simulation time: 0 hr 16 min 11 sec) 
Heartbeat CPU  0 instructions:  461000002 cycles: 1059823439 heartbeat IPC: 0.36061 cumulative IPC: 0.37891 (Simulation time: 0 hr 16 min 13 sec) 
Heartbeat CPU  0 instructions:  462000001 cycles: 1062546189 heartbeat IPC: 0.36728 cumulative IPC: 0.37888 (Simulation time: 0 hr 16 min 15 sec) 
Heartbeat CPU  0 instructions:  463000001 cycles: 1065374136 heartbeat IPC: 0.35361 cumulative IPC: 0.37880 (Simulation time: 0 hr 16 min 17 sec) 
Heartbeat CPU  0 instructions:  464000000 cycles: 1068180258 heartbeat IPC: 0.35636 cumulative IPC: 0.37874 (Simulation time: 0 hr 16 min 20 sec) 
Heartbeat CPU  0 instructions:  465000001 cycles: 1070806468 heartbeat IPC: 0.38078 cumulative IPC: 0.37874 (Simulation time: 0 hr 16 min 22 sec) 
Heartbeat CPU  0 instructions:  466000000 cycles: 1073526328 heartbeat IPC: 0.36767 cumulative IPC: 0.37871 (Simulation time: 0 hr 16 min 24 sec) 
Heartbeat CPU  0 instructions:  467000003 cycles: 1076230915 heartbeat IPC: 0.36974 cumulative IPC: 0.37869 (Simulation time: 0 hr 16 min 26 sec) 
Heartbeat CPU  0 instructions:  468000000 cycles: 1078869775 heartbeat IPC: 0.37895 cumulative IPC: 0.37869 (Simulation time: 0 hr 16 min 29 sec) 
Heartbeat CPU  0 instructions:  469000002 cycles: 1081448264 heartbeat IPC: 0.38782 cumulative IPC: 0.37871 (Simulation time: 0 hr 16 min 31 sec) 
Heartbeat CPU  0 instructions:  470000000 cycles: 1084150626 heartbeat IPC: 0.37005 cumulative IPC: 0.37869 (Simulation time: 0 hr 16 min 33 sec) 
Heartbeat CPU  0 instructions:  471000000 cycles: 1086741275 heartbeat IPC: 0.38600 cumulative IPC: 0.37871 (Simulation time: 0 hr 16 min 35 sec) 
Heartbeat CPU  0 instructions:  472000000 cycles: 1089408574 heartbeat IPC: 0.37491 cumulative IPC: 0.37870 (Simulation time: 0 hr 16 min 38 sec) 
Heartbeat CPU  0 instructions:  473000001 cycles: 1092333307 heartbeat IPC: 0.34191 cumulative IPC: 0.37859 (Simulation time: 0 hr 16 min 40 sec) 
Heartbeat CPU  0 instructions:  474000000 cycles: 1094951074 heartbeat IPC: 0.38200 cumulative IPC: 0.37860 (Simulation time: 0 hr 16 min 42 sec) 
Heartbeat CPU  0 instructions:  475000000 cycles: 1097771269 heartbeat IPC: 0.35459 cumulative IPC: 0.37853 (Simulation time: 0 hr 16 min 44 sec) 
Heartbeat CPU  0 instructions:  476000000 cycles: 1100588057 heartbeat IPC: 0.35501 cumulative IPC: 0.37846 (Simulation time: 0 hr 16 min 46 sec) 
Heartbeat CPU  0 instructions:  477000003 cycles: 1103318774 heartbeat IPC: 0.36621 cumulative IPC: 0.37843 (Simulation time: 0 hr 16 min 49 sec) 
Heartbeat CPU  0 instructions:  478000001 cycles: 1105979336 heartbeat IPC: 0.37586 cumulative IPC: 0.37842 (Simulation time: 0 hr 16 min 51 sec) 
Heartbeat CPU  0 instructions:  479000001 cycles: 1108582402 heartbeat IPC: 0.38416 cumulative IPC: 0.37844 (Simulation time: 0 hr 16 min 53 sec) 
Heartbeat CPU  0 instructions:  480000000 cycles: 1111439804 heartbeat IPC: 0.34997 cumulative IPC: 0.37835 (Simulation time: 0 hr 16 min 55 sec) 
Heartbeat CPU  0 instructions:  481000000 cycles: 1114115212 heartbeat IPC: 0.37377 cumulative IPC: 0.37834 (Simulation time: 0 hr 16 min 58 sec) 
Heartbeat CPU  0 instructions:  482000000 cycles: 1116743366 heartbeat IPC: 0.38050 cumulative IPC: 0.37835 (Simulation time: 0 hr 17 min 0 sec) 
Heartbeat CPU  0 instructions:  483000000 cycles: 1119304355 heartbeat IPC: 0.39047 cumulative IPC: 0.37838 (Simulation time: 0 hr 17 min 2 sec) 
Heartbeat CPU  0 instructions:  484000000 cycles: 1121998562 heartbeat IPC: 0.37117 cumulative IPC: 0.37836 (Simulation time: 0 hr 17 min 4 sec) 
Heartbeat CPU  0 instructions:  485000000 cycles: 1124655953 heartbeat IPC: 0.37631 cumulative IPC: 0.37835 (Simulation time: 0 hr 17 min 6 sec) 
Heartbeat CPU  0 instructions:  486000000 cycles: 1127264593 heartbeat IPC: 0.38334 cumulative IPC: 0.37837 (Simulation time: 0 hr 17 min 8 sec) 
Heartbeat CPU  0 instructions:  487000003 cycles: 1130068168 heartbeat IPC: 0.35669 cumulative IPC: 0.37831 (Simulation time: 0 hr 17 min 11 sec) 
Heartbeat CPU  0 instructions:  488000000 cycles: 1132869281 heartbeat IPC: 0.35700 cumulative IPC: 0.37825 (Simulation time: 0 hr 17 min 13 sec) 
Heartbeat CPU  0 instructions:  489000000 cycles: 1135580790 heartbeat IPC: 0.36880 cumulative IPC: 0.37822 (Simulation time: 0 hr 17 min 15 sec) 
Heartbeat CPU  0 instructions:  490000003 cycles: 1138343784 heartbeat IPC: 0.36193 cumulative IPC: 0.37818 (Simulation time: 0 hr 17 min 17 sec) 
Heartbeat CPU  0 instructions:  491000001 cycles: 1141068007 heartbeat IPC: 0.36708 cumulative IPC: 0.37815 (Simulation time: 0 hr 17 min 20 sec) 
Heartbeat CPU  0 instructions:  492000000 cycles: 1143847160 heartbeat IPC: 0.35982 cumulative IPC: 0.37810 (Simulation time: 0 hr 17 min 22 sec) 
Heartbeat CPU  0 instructions:  493000000 cycles: 1146531898 heartbeat IPC: 0.37248 cumulative IPC: 0.37809 (Simulation time: 0 hr 17 min 24 sec) 
Heartbeat CPU  0 instructions:  494000000 cycles: 1149173038 heartbeat IPC: 0.37862 cumulative IPC: 0.37809 (Simulation time: 0 hr 17 min 26 sec) 
Heartbeat CPU  0 instructions:  495000001 cycles: 1152012866 heartbeat IPC: 0.35213 cumulative IPC: 0.37802 (Simulation time: 0 hr 17 min 29 sec) 
Heartbeat CPU  0 instructions:  496000000 cycles: 1154772571 heartbeat IPC: 0.36236 cumulative IPC: 0.37798 (Simulation time: 0 hr 17 min 31 sec) 
Heartbeat CPU  0 instructions:  497000001 cycles: 1157548209 heartbeat IPC: 0.36028 cumulative IPC: 0.37793 (Simulation time: 0 hr 17 min 33 sec) 
Heartbeat CPU  0 instructions:  498000000 cycles: 1160319881 heartbeat IPC: 0.36079 cumulative IPC: 0.37789 (Simulation time: 0 hr 17 min 35 sec) 
Heartbeat CPU  0 instructions:  499000002 cycles: 1163058182 heartbeat IPC: 0.36519 cumulative IPC: 0.37785 (Simulation time: 0 hr 17 min 38 sec) 
Heartbeat CPU  0 instructions:  500000000 cycles: 1165751165 heartbeat IPC: 0.37133 cumulative IPC: 0.37784 (Simulation time: 0 hr 17 min 40 sec) 
Heartbeat CPU  0 instructions:  501000000 cycles: 1168475216 heartbeat IPC: 0.36710 cumulative IPC: 0.37781 (Simulation time: 0 hr 17 min 42 sec) 
Heartbeat CPU  0 instructions:  502000000 cycles: 1171258996 heartbeat IPC: 0.35922 cumulative IPC: 0.37776 (Simulation time: 0 hr 17 min 44 sec) 
Heartbeat CPU  0 instructions:  503000002 cycles: 1174083901 heartbeat IPC: 0.35399 cumulative IPC: 0.37770 (Simulation time: 0 hr 17 min 46 sec) 
Heartbeat CPU  0 instructions:  504000000 cycles: 1176914365 heartbeat IPC: 0.35330 cumulative IPC: 0.37763 (Simulation time: 0 hr 17 min 49 sec) 
Heartbeat CPU  0 instructions:  505000001 cycles: 1179535397 heartbeat IPC: 0.38153 cumulative IPC: 0.37764 (Simulation time: 0 hr 17 min 51 sec) 
Heartbeat CPU  0 instructions:  506000001 cycles: 1182360340 heartbeat IPC: 0.35399 cumulative IPC: 0.37758 (Simulation time: 0 hr 17 min 53 sec) 
Heartbeat CPU  0 instructions:  507000001 cycles: 1185193070 heartbeat IPC: 0.35302 cumulative IPC: 0.37751 (Simulation time: 0 hr 17 min 55 sec) 
Heartbeat CPU  0 instructions:  508000000 cycles: 1187936315 heartbeat IPC: 0.36453 cumulative IPC: 0.37748 (Simulation time: 0 hr 17 min 57 sec) 
Heartbeat CPU  0 instructions:  509000001 cycles: 1190506399 heartbeat IPC: 0.38909 cumulative IPC: 0.37751 (Simulation time: 0 hr 18 min 0 sec) 
Heartbeat CPU  0 instructions:  510000003 cycles: 1193244386 heartbeat IPC: 0.36523 cumulative IPC: 0.37748 (Simulation time: 0 hr 18 min 2 sec) 
Heartbeat CPU  0 instructions:  511000001 cycles: 1195686922 heartbeat IPC: 0.40941 cumulative IPC: 0.37755 (Simulation time: 0 hr 18 min 4 sec) 
Heartbeat CPU  0 instructions:  512000000 cycles: 1198438499 heartbeat IPC: 0.36343 cumulative IPC: 0.37751 (Simulation time: 0 hr 18 min 6 sec) 
Heartbeat CPU  0 instructions:  513000001 cycles: 1201144953 heartbeat IPC: 0.36949 cumulative IPC: 0.37749 (Simulation time: 0 hr 18 min 8 sec) 
Heartbeat CPU  0 instructions:  514000002 cycles: 1203842405 heartbeat IPC: 0.37072 cumulative IPC: 0.37748 (Simulation time: 0 hr 18 min 11 sec) 
Heartbeat CPU  0 instructions:  515000001 cycles: 1206374451 heartbeat IPC: 0.39494 cumulative IPC: 0.37752 (Simulation time: 0 hr 18 min 13 sec) 
Heartbeat CPU  0 instructions:  516000000 cycles: 1208876395 heartbeat IPC: 0.39969 cumulative IPC: 0.37757 (Simulation time: 0 hr 18 min 15 sec) 
Heartbeat CPU  0 instructions:  517000002 cycles: 1211702207 heartbeat IPC: 0.35388 cumulative IPC: 0.37751 (Simulation time: 0 hr 18 min 17 sec) 
Heartbeat CPU  0 instructions:  518000001 cycles: 1214514360 heartbeat IPC: 0.35560 cumulative IPC: 0.37745 (Simulation time: 0 hr 18 min 19 sec) 
Heartbeat CPU  0 instructions:  519000001 cycles: 1217227541 heartbeat IPC: 0.36857 cumulative IPC: 0.37743 (Simulation time: 0 hr 18 min 21 sec) 
Heartbeat CPU  0 instructions:  520000000 cycles: 1220035455 heartbeat IPC: 0.35614 cumulative IPC: 0.37738 (Simulation time: 0 hr 18 min 23 sec) 
Heartbeat CPU  0 instructions:  521000000 cycles: 1222693672 heartbeat IPC: 0.37619 cumulative IPC: 0.37737 (Simulation time: 0 hr 18 min 26 sec) 
Heartbeat CPU  0 instructions:  522000000 cycles: 1225348551 heartbeat IPC: 0.37666 cumulative IPC: 0.37737 (Simulation time: 0 hr 18 min 28 sec) 
Heartbeat CPU  0 instructions:  523000002 cycles: 1227826486 heartbeat IPC: 0.40356 cumulative IPC: 0.37743 (Simulation time: 0 hr 18 min 30 sec) 
Heartbeat CPU  0 instructions:  524000000 cycles: 1230606315 heartbeat IPC: 0.35973 cumulative IPC: 0.37739 (Simulation time: 0 hr 18 min 32 sec) 
Heartbeat CPU  0 instructions:  525000000 cycles: 1233195413 heartbeat IPC: 0.38623 cumulative IPC: 0.37741 (Simulation time: 0 hr 18 min 34 sec) 
Heartbeat CPU  0 instructions:  526000000 cycles: 1235794861 heartbeat IPC: 0.38470 cumulative IPC: 0.37742 (Simulation time: 0 hr 18 min 36 sec) 
Heartbeat CPU  0 instructions:  527000000 cycles: 1238107675 heartbeat IPC: 0.43237 cumulative IPC: 0.37754 (Simulation time: 0 hr 18 min 39 sec) 
Heartbeat CPU  0 instructions:  528000000 cycles: 1240591520 heartbeat IPC: 0.40260 cumulative IPC: 0.37759 (Simulation time: 0 hr 18 min 41 sec) 
[...]
Heartbeat CPU  0 instructions:  586000000 cycles: 1394486893 heartbeat IPC: 0.34705 cumulative IPC: 0.37751 (Simulation time: 0 hr 20 min 46 sec) 
Heartbeat CPU  0 instructions:  587000000 cycles: 1397165388 heartbeat IPC: 0.37334 cumulative IPC: 0.37750 (Simulation time: 0 hr 20 min 49 sec) 
Heartbeat CPU  0 instructions:  588000000 cycles: 1399942312 heartbeat IPC: 0.36011 cumulative IPC: 0.37746 (Simulation time: 0 hr 20 min 51 sec) 
Heartbeat CPU  0 instructions:  589000000 cycles: 1402733562 heartbeat IPC: 0.35826 cumulative IPC: 0.37742 (Simulation time: 0 hr 20 min 53 sec) 
Heartbeat CPU  0 instructions:  590000001 cycles: 1405180174 heartbeat IPC: 0.40873 cumulative IPC: 0.37748 (Simulation time: 0 hr 20 min 55 sec) 
Heartbeat CPU  0 instructions:  591000003 cycles: 1407823449 heartbeat IPC: 0.37832 cumulative IPC: 0.37748 (Simulation time: 0 hr 20 min 57 sec) 
Heartbeat CPU  0 instructions:  592000000 cycles: 1410612406 heartbeat IPC: 0.35856 cumulative IPC: 0.37744 (Simulation time: 0 hr 21 min 0 sec) 
Heartbeat CPU  0 instructions:  593000000 cycles: 1413333083 heartbeat IPC: 0.36756 cumulative IPC: 0.37742 (Simulation time: 0 hr 21 min 2 sec) 
Heartbeat CPU  0 instructions:  594000000 cycles: 1415618958 heartbeat IPC: 0.43747 cumulative IPC: 0.37752 (Simulation time: 0 hr 21 min 4 sec) 
Heartbeat CPU  0 instructions:  595000001 cycles: 1418172142 heartbeat IPC: 0.39167 cumulative IPC: 0.37755 (Simulation time: 0 hr 21 min 6 sec) 
Heartbeat CPU  0 instructions:  596000000 cycles: 1420958819 heartbeat IPC: 0.35885 cumulative IPC: 0.37751 (Simulation time: 0 hr 21 min 8 sec) 
Heartbeat CPU  0 instructions:  597000000 cycles: 1423834782 heartbeat IPC: 0.34771 cumulative IPC: 0.37745 (Simulation time: 0 hr 21 min 11 sec) 
Heartbeat CPU  0 instructions:  598000000 cycles: 1426415525 heartbeat IPC: 0.38749 cumulative IPC: 0.37747 (Simulation time: 0 hr 21 min 13 sec) 
Heartbeat CPU  0 instructions:  599000000 cycles: 1429300330 heartbeat IPC: 0.34664 cumulative IPC: 0.37740 (Simulation time: 0 hr 21 min 15 sec) 
Heartbeat CPU  0 instructions:  600000000 cycles: 1431729894 heartbeat IPC: 0.41160 cumulative IPC: 0.37746 (Simulation time: 0 hr 21 min 17 sec) 
Finished CPU 0 instructions: 500000000 cycles: 1324639771 cumulative IPC: 0.37746 (Simulation time: 0 hr 21 min 17 sec) 

ChampSim completed all CPUs

[ROI Statistics]
Core_0_instructions 500000000
Core_0_cycles 1324639771
Core_0_IPC 0.37746

Core_0_branch_prediction_accuracy 85.18932
Core_0_branch_MPKI 24.43069
Core_0_average_ROB_occupancy_at_mispredict 38.24789

Core_0_L1D_total_access 155617352
Core_0_L1D_total_hit 153301718
Core_0_L1D_total_miss 2315634
Core_0_L1D_loads 89719539
Core_0_L1D_load_hit 88890007
Core_0_L1D_load_miss 829532
Core_0_L1D_RFOs 65897813
Core_0_L1D_RFO_hit 64411711
Core_0_L1D_RFO_miss 1486102
Core_0_L1D_prefetches 0
Core_0_L1D_prefetch_hit 0
Core_0_L1D_prefetch_miss 0
Core_0_L1D_writebacks 0
Core_0_L1D_writeback_hit 0
Core_0_L1D_writeback_miss 0
Core_0_L1D_prefetch_requested 0
Core_0_L1D_prefetch_dropped 0
Core_0_L1D_prefetch_issued 0
Core_0_L1D_prefetch_filled 0
Core_0_L1D_prefetch_useful 0
Core_0_L1D_prefetch_useless 0
Core_0_L1D_prefetch_late 0
Core_0_L1D_average_miss_latency 300.23495

Core_0_L1D_rq_access 125890365
Core_0_L1D_rq_forward 0
Core_0_L1D_rq_merged 36078344
Core_0_L1D_rq_to_cache 89811390
Core_0_L1D_rq_full 0

Core_0_L1D_wq_access 70505122
Core_0_L1D_wq_forward 631
Core_0_L1D_wq_merged 423367
Core_0_L1D_wq_to_cache 70081755
Core_0_L1D_wq_full 30989630

Core_0_L1D_pq_access 0
Core_0_L1D_pq_forward 0
Core_0_L1D_pq_merged 0
Core_0_L1D_pq_to_cache 0
Core_0_L1D_pq_full 0

Core_0_L1D_acc_epochs 1395920
Core_0_L1D_acc_level_0 1395920
Core_0_L1D_acc_level_1 0
Core_0_L1D_acc_level_2 0
Core_0_L1D_acc_level_3 0
Core_0_L1D_acc_level_4 0
Core_0_L1D_acc_level_5 0
Core_0_L1D_acc_level_6 0
Core_0_L1D_acc_level_7 0
Core_0_L1D_acc_level_8 0
Core_0_L1D_acc_level_9 0

Core_0_L1I_total_access 100044596
Core_0_L1I_total_hit 98099663
Core_0_L1I_total_miss 1944933
Core_0_L1I_loads 100044596
Core_0_L1I_load_hit 98099663
Core_0_L1I_load_miss 1944933
Core_0_L1I_RFOs 0
Core_0_L1I_RFO_hit 0
Core_0_L1I_RFO_miss 0
Core_0_L1I_prefetches 0
Core_0_L1I_prefetch_hit 0
Core_0_L1I_prefetch_miss 0
Core_0_L1I_writebacks 0
Core_0_L1I_writeback_hit 0
Core_0_L1I_writeback_miss 0
Core_0_L1I_prefetch_requested 0
Core_0_L1I_prefetch_dropped 0
Core_0_L1I_prefetch_issued 0
Core_0_L1I_prefetch_filled 0
Core_0_L1I_prefetch_useful 0
Core_0_L1I_prefetch_useless 0
Core_0_L1I_prefetch_late 0
Core_0_L1I_average_miss_latency 12.85258

Core_0_L1I_rq_access 499999934
Core_0_L1I_rq_forward 0
Core_0_L1I_rq_merged 399239733
Core_0_L1I_rq_to_cache 100760201
Core_0_L1I_rq_full 0

Core_0_L1I_wq_access 0
Core_0_L1I_wq_forward 0
Core_0_L1I_wq_merged 0
Core_0_L1I_wq_to_cache 0
Core_0_L1I_wq_full 0

Core_0_L1I_pq_access 0
Core_0_L1I_pq_forward 0
Core_0_L1I_pq_merged 0
Core_0_L1I_pq_to_cache 0
Core_0_L1I_pq_full 0

Core_0_L1I_acc_epochs 1395920
Core_0_L1I_acc_level_0 1395920
Core_0_L1I_acc_level_1 0
Core_0_L1I_acc_level_2 0
Core_0_L1I_acc_level_3 0
Core_0_L1I_acc_level_4 0
Core_0_L1I_acc_level_5 0
Core_0_L1I_acc_level_6 0
Core_0_L1I_acc_level_7 0
Core_0_L1I_acc_level_8 0
Core_0_L1I_acc_level_9 0

Core_0_L2C_total_access 6062138
Core_0_L2C_total_hit 4703902
Core_0_L2C_total_miss 1358236
Core_0_L2C_loads 2774444
Core_0_L2C_load_hit 2330406
Core_0_L2C_load_miss 444038
Core_0_L2C_RFOs 1486057
Core_0_L2C_RFO_hit 609570
Core_0_L2C_RFO_miss 876487
Core_0_L2C_prefetches 47451
Core_0_L2C_prefetch_hit 11873
Core_0_L2C_prefetch_miss 35578
Core_0_L2C_writebacks 1754186
Core_0_L2C_writeback_hit 1752053
Core_0_L2C_writeback_miss 2133
Core_0_L2C_prefetch_requested 317359
Core_0_L2C_prefetch_dropped 0
Core_0_L2C_prefetch_issued 317359
Core_0_L2C_prefetch_filled 42344
Core_0_L2C_prefetch_useful 15788
Core_0_L2C_prefetch_useless 26556
Core_0_L2C_prefetch_late 1659
Core_0_L2C_average_miss_latency 493.54095

Core_0_L2C_rq_access 4260567
Core_0_L2C_rq_forward 0
Core_0_L2C_rq_merged 0
Core_0_L2C_rq_to_cache 4260501
Core_0_L2C_rq_full 0

Core_0_L2C_wq_access 1754186
Core_0_L2C_wq_forward 66
Core_0_L2C_wq_merged 0
Core_0_L2C_wq_to_cache 1754186
Core_0_L2C_wq_full 0

Core_0_L2C_pq_access 317359
Core_0_L2C_pq_forward 0
Core_0_L2C_pq_merged 839
Core_0_L2C_pq_to_cache 316520
Core_0_L2C_pq_full 0

Core_0_L2C_acc_epochs 1395920
Core_0_L2C_acc_level_0 1385320
Core_0_L2C_acc_level_1 4045
Core_0_L2C_acc_level_2 2914
Core_0_L2C_acc_level_3 487
Core_0_L2C_acc_level_4 165
Core_0_L2C_acc_level_5 1953
Core_0_L2C_acc_level_6 188
Core_0_L2C_acc_level_7 180
Core_0_L2C_acc_level_8 104
Core_0_L2C_acc_level_9 564

Core_0_LLC_total_access 2551484
Core_0_LLC_total_hit 882881
Core_0_LLC_total_miss 1668603
Core_0_LLC_loads 442384
Core_0_LLC_load_hit 364419
Core_0_LLC_load_miss 77965
Core_0_LLC_RFOs 876484
Core_0_LLC_RFO_hit 124514
Core_0_LLC_RFO_miss 751970
Core_0_LLC_prefetches 207711
Core_0_LLC_prefetch_hit 43414
Core_0_LLC_prefetch_miss 164297
Core_0_LLC_writebacks 1024905
Core_0_LLC_writeback_hit 350534
Core_0_LLC_writeback_miss 674371
Core_0_LLC_prefetch_requested 0
Core_0_LLC_prefetch_dropped 0
Core_0_LLC_prefetch_issued 0
Core_0_LLC_prefetch_filled 245597
Core_0_LLC_prefetch_useful 65500
Core_0_LLC_prefetch_useless 173849
Core_0_LLC_prefetch_late 641
Core_0_LLC_average_miss_latency 395.99474

Core_0_LLC_rq_access 1318870
Core_0_LLC_rq_forward 0
Core_0_LLC_rq_merged 0
Core_0_LLC_rq_to_cache 1318868
Core_0_LLC_rq_full 0

Core_0_LLC_wq_access 1024905
Core_0_LLC_wq_forward 2
Core_0_LLC_wq_merged 0
Core_0_LLC_wq_to_cache 1024905
Core_0_LLC_wq_full 0

Core_0_LLC_pq_access 299704
Core_0_LLC_pq_forward 0
Core_0_LLC_pq_merged 158
Core_0_LLC_pq_to_cache 299546
Core_0_LLC_pq_full 0

Core_0_LLC_acc_epochs 1398174
Core_0_LLC_acc_level_0 1335218
Core_0_LLC_acc_level_1 26526
Core_0_LLC_acc_level_2 18444
Core_0_LLC_acc_level_3 1419
Core_0_LLC_acc_level_4 144
Core_0_LLC_acc_level_5 13728
Core_0_LLC_acc_level_6 199
Core_0_LLC_acc_level_7 387
Core_0_LLC_acc_level_8 80
Core_0_LLC_acc_level_9 2029

Core_0_major_page_fault 0
Core_0_minor_page_fault 6639

[MLOP] History of tracked zone:
IIIIIIIIIIIIIIIIIIIIIIIIIIIIIIIIIIIIIIIIIIIIIIIIIIIIIIIIIIIIIIII
IIIIIIIIIIIIIIIIIIIIIIIIIIIIIIIIIIIIIIIIIIIIIIIIAII2II4I44I4II4I
IIIIIIIIIIIIIIIIIIIIIIIIIIIIIIIIIIIIIIIIIIIIIIIIAII2II4I44IAII2I
IIIIIIIIIIIIIIIIIIIIIIIIIIIIIIIIIIIIIIIIIIIIIIIIAII2II4I44IAIA2I
IIIIIIIIIIIIIIIIIIIIIIIIIIIIIIIIIIIIIIIIIIIIIIIIAII2II4I44IAAA22
IIIIIIIIIIIIIIIIIIIIIIIIIIIIIIIIIIIIIIIIIIIIIIIIAII2II4I44AAAA22
IIIIIIIIIIIIIIIIIIIIIIIIIIIIIIIIIIIIIIIIIIIIIIIIAII2A44444AAAA22
IIIIIIIIIIIIIIIIIIIIIIIIIIIIIIIIIIIIIIIIIIIIIIIIA4I2A44444AAAA22
IIIIIIIIIIIIIIIIIIIIIIIIIIIIIIIIIIIIIIIIIIIIIIIIA4I2A4A444AAAA22
IIIIIIIIIIIIIIIIIIIIIIIIIIIIIIIIIIIIIIIIIIIIIIIIA4I2A4AA44AAAA22
IIIIIIIIIIIIIIIIIIIIIIIIIIIIIIIIIIIIIIIIIIIIIIIIA4I2A4AAA4AAAA22
IIIIIIIIIIIIIIIIIIIIIIIIIIIIIIIIIIIIIIIIIIIIIIIIA4I2A2AAA4AAAA22
IIIIIIIIIIIIIIIIIIIIIIIIIIIIIIIIIIIIIIIIIIIIIIIIA4I2A2AAA4AAAI22
IIIIIIIIIIIIIIIIIIIIIIIIIIIIIIIIIIIIIIIIIIIIIIIIA4I2A2AAA4AAAA22
IIIIIIIIIIIIIIIIIIIIIIIIIIIIIIIIIIIIIIIIIIIIIIIIA4I2A2AAA4AAAAI2
IIIIIIIIIIIIIIIIIIIIIIIIIIIIIIIIIIIIIIIIIIIIIIIIA4I2AAAAA4AAAA42
IIIIIIIIIIIIIIIIIIIIIIIIIIIIIIIIIIIIIIIIIIIIIIIIA4I2AAAAA4AAAA4I
IIIIIIIIIIIIIIIIIIIIIIIIIIIIIIIIIIIIIIIIIIIIIIIIA4I2AAAAA4AAAA44
IIIIIIIIIIIIIIIIIIIIIIIIIIIIIIIIIIIIIIIIIIIIIIIIA4IAAAAAA4AAAA44
IIIIIIIIIIIIIIIIIIIIIIIIIIIIIIIIIIIIIIIIIIIIIIIIA4IAAAAAA4AAAA24
IIIIIIIIIIIIIIIIIIIIIIIIIIIIIIIIIIIIIIIIIIIIIIIIA4IAAAAAA2AAAA24
IIIIIIIIIIIIIIIIIIIIIIIIIIIIIIIIIIIIIIIIIIIIIIIIA4IAAAAAA2AAAAA2
IIIIIIIIIIIIIIIIIIIIIIIIIIIIIIIIIIIIIIIIIIIIIIIIA4IAAAAAA2AAAAAA
IIIIIIIIIIIIIIIIIIIIIIIIIIIIIIIIIIIIIIIIIIIIIIIIA44AAAAAA2AAAAAA
IIIIIIIIIIIIIIIIIIIIIIIIIIIIIIIIIIIIIIIIIIIIIIIIA44AAAAAA2AIAAAA
IIIIIIIIIIIIIIIIIIIIIIIIIIIIIIIIIIIIIIIIIIIIIIIIA44AAAAAA2AIAIAA
IIIIIIIIIIIIIIIIIIIIIIIIIIIIIIIIIIIIIIIIIIIIIIIIA44AAAAAA2IIAIAA
IIIIIIIIIIIIIIIIIIIIIIIIIIIIIIIIIIIIIIIIIIIIIIIII44AAAAAA2IIAIAA
IIIIIIIIIIIIIIIIIIIIIIIIIIIIIIIIIIIIIIIIIIIIIIIII44AAAAAA2IIAIIA
IIIIIIIIIIIIIIIIIIIIIIIIIIIIIIIIIIIIIIIIIIIIIIIIA44AAAAAA244AIIA
IIIIIIIIIIIIIIIIIIIIIIIIIIIIIIIIIIIIIIIIIIIIIIIIA44AAAAAA244AIAA
IIIIIIIIIIIIIIIIIIIIIIIIIIIIIIIIIIIIIIIIIIIIIIIIA44AAAAAA244A4AA
IIIIIIIIIIIIIIIIIIIIIIIIIIIIIIIIIIIIIIIIIIIIIIIIA44AAAAAA2A4A4AA
IIIIIIIIIIIIIIIIIIIIIIIIIIIIIIIIIIIIIIIIIIIIIIIIA44AAAAAA2AAA4AA
IIIIIIIIIIIIIIIIIIIIIIIIIIIIIIIIIIIIIIIIIIIIIIIIA44AAAAAA2AAAAAA
IIIIIIIIIIIIIIIIIIIIIIIIIIIIIIIIIIIIIIIIIIIIIIIIA44AAAAAAAAAAAAA
IIIIIIIIIIIIIIIIIIIIIIIIIIIIIIIIIIII4III44III4I4A44AAAAAAAAAAAAA
IIIIIIIIIIIIIIIIIIIIIIIIIIIIIIIIIIII44II444II444A44AAAAAAAAAAAAA
IIIIIIIIIIIIIIIIIIIIIIIIII4III44III444II44444444A44AAAAAAAAAAAAA
IIIIIIIIIIIIIIIIIIIIIIIIII44II444II4444I44444444A44AAAAAAAAAAAAA
IIIIIIIIIIIIIIIIIIIIIIIIII444I4444I4444444444444A44AAAAAAAAAAAAA
IIIIIIIIIIIIIIIIIIIIIIIIII4444444444444444444444A44AAAAAAAAAAAAA
IIIIIIIIIIIIIIIIIIIIIIIIII4444444444444444444444A4IAAAAAAAAAAAAA
IIIIIIIIIIIIIIIIIIIIIIIIII4444444444444444444444A44AAAAAAAAAAAAA
IIIIIIIIIIIIIIIIIIIIII4III4444444444444444444444A24AAAAAAAAAAAAA
IIIIIIIIIIIIIIIIIIIIII4II44444444444444444444444A24AAAAAAAAAAAAA
IIIIIIIIIIIIIIIIIIIIII4II44444444444444444444444A24AAAAAIAAAAAAA
IIIIIIIIIIIIIIIIIIIIII4II44444444444444444444444I24AAAAAIAAAAAAA
IIIIIIIIIIIIIIIIIIIIII4II44444444444444444444444I24AAAAA4AAAAAAA
IIIIIIIIIIIIIIIIIIIIII4II44444444444444444444444I24AAAAAAAAAAAAA
IIIIIIIIIIIIIIIIIIIIII4II44444444444444444444444A24AAAAAAAAAAAAA
IIIIIIIIIIIIIIIIIIIIII4II44444444444444444444444A2AAAAAAAAAAAAAA
IIIIIIIIIIIIIIIIIIIIII4II44444444444444444444444A2AAIAAAAAAAAAAA
IIIIIIIIIIIIIIIIIIIIII4II44444444444444444444444A2AAIAAAIAAAAAAA
IIIIIIIIIIIIIIIIIIIIII4II44444444444444444444444A2AAAAAAIAAAAAAA
IIIIIIIIIIIIIIIIIIIIII4II44444444444444444444444A2AAAAAA2AAAAAAA
IIIIIIIIIIIIIIIIIIIIII4II44444444444444444444444A2AAAAAAIAAAAAAA
IIIIIIIIIIIIIIIIIIIIII4II44444444444444444444444A2AAAAAA4AAAAAAA
IIIIIIIIIIIIIIIIIIIIII4II44444444444444444444444A2AAAAAAAAAAAAAA
IIIIIIIIIIIIIIIIIIIIII4II44444444444444444444444A2AAAAAAAAAAAAIA
IIIIIIIIIIIIIIIIIIIIII4II44444444444444444444444A2AAAAAAAAAAAA4A
IIIIIIIIIIIIIIIIIIIIII4II44444444444444444444444I2AAAAAAAAAAAA4A
IIIIIIIIIIIIIIIIIIIIII4II44444444444444444444444I2AIAAAAAAAAAA4A
IIIIIIIIIIIIIIIIIIIIII4II44444444444444444444444I2AIAAAAAAIAAA4A
IIIIIIIIIIIIIIIIIIIIII4II44444444444444444444444I2AIAAAAAA4AAA4A
IIIIIIIIIIIIIIIIIIIIII4II4444444444444444444444442AIAAAAAA4AAA4A
IIIIIIIIIIIIIIIIIIIIII4II4444444444444444444444442AAAAAAAA4AAA4A
IIIIIIIIIIIIIIIIIIIIII4II4444444444444444444444442AAAAAAAAAAAA4A
IIIIIIIIIIIIIIIIIIIIII4II44444444444444444444444A2AAAAAAAAAAAA4A
IIIIIIIIIIIIIIIIIIIIII4II44444444444444444444444A2AAAAAAAAAAAAAA
IIIIIIIIIIIIIIIIIIIIII4II44444444444444444444444A2AIAAAAAAAAAAAA
IIIIIIIIIIIIIIIIIIIIII4II44444444444444444444444A2A2AAAAAAAAAAAA
IIIIIIIIIIIIIIIIIIIIII4II44444444444444444444444A2AAAAAAAAAAAAAA
IIIIIIIIIIIIIIIIIIIIII4II44444444444444444444444A2AAAAIAAAAAAAAA
IIIIIIIIIIIIIIIIIIIIII4II44444444444444444444444A2AAIAIAAAAAAAAA
IIIIIIIIIIIIIIIIIIIIII4II44444444444444444444444A2AAIA4AAAAAAAAA
IIIIIIIIIIIIIIIIIIIIII4II44444444444444444444444A2AAAA4AAAAAAAAA
IIIIIIIIIIIIIIIIIIIIII4II44444444444444444444444A2AAAAAAAAAAAAAA
IIIIIIIIIIIIIIIIIIIIII4II44444444444444444444444A2AAAAAAAAAAAAIA
IIIIIIIIIIIIIIIIIIIIII4II44444444444444444444444A2AAAAAAAAAAAA2A
IIIIIIIIIIIIIIIIIIIIII4II44444444444444444444444A2IAAAAAAAAAAA2A
IIIIIIIIIIIIIIIIIIIIII4II44444444444444444444444I2IAAAAAAAAAAA2A
IIIIIIIIIIIIIIIIIIIIII4II44444444444444444444444I2IAAAAAAAAAAAAA
IIIIIIIIIIIIIIIIIIIIII4II44444444444444444444444A2IAAAAAAAAAAAAA
IIIIIIIIIIIIIIIIIIIIII4II44444444444444444444444A2IAAAAIAAAAAAAA
IIIIIIIIIIIIIIIIIIIIII4II44444444444444444444444A2IAAAA2AAAAAAAA
IIIIIIIIIIIIIIIIIIIIII4II44444444444444444444444A2IAAAA2AIAAAAAA
IIIIIIIIIIIIIIIIIIIIII4II44444444444444444444444A2IAAAA2A2AAAAAA
IIIIIIIIIIIIIIIIIIIIII4II44444444444444444444444A2IAAAA2AAAAAAAA
IIIIIIIIIIIIIIIIIIIIII4II44444444444444444444444A2IAAAAAAAAAAAAA
IIIIIIIIIIIIIIIIIIIIII4II44444444444444444444444A2IAAIAAAAAAAAAA
IIIIIIIIIIIIIIIIIIIIII4II44444444444444444444444A2IAAIAAAAAAAAAI
IIIIIIIIIIIIIIIIIIIIII4II44444444444444444444444A2IAAAAAAAAAAAAI
IIIIIIIIIIIIIIIIIIIIII4II44444444444444444444444A2IAAAAAAAAAAAA4
IIIIIIIIIIIIIIIIIIIIII4II44444444444444444444444A2IAAAAAAAAAAIA4
IIIIIIIIIIIIIIIIIIIIII4II44444444444444444444444A2IAAAAAAAAAA2A2
IIIIIIIIIIIIIIIIIIIIII4II44444444444444444444444A2IAAAAAAAAAAAA2
IIIIIIIIIIIIIIIIIIIIII4II44444444444444444444444A2IAAAAAAAAAAAAA
IIIIIIIIIIIIIIIIIIIIII4II44444444444444444444444A2IAAAAAAAAAAIAA
IIIIIIIIIIIIIIIIIIIIII4II44444444444444444444444A2IAAAAAAAAAIIAA
IIIIIIIIIIIIIIIIIIIIII4II44444444444444444444444A2IAAAAAAAAAI2AA
IIIIIIIIIIIIIIIIIIIIII4II44444444444444444444444A2IAAAAAAAAA42AA
IIIIIIIIIIIIIIIIIIIIII4II44444444444444444444444A2IAAAAAAAAA22AA
IIIIIIIIIIIIIIIIIIIIII4II44444444444444444444444A2IAAAAAAAAA2AAA
IIIIIIIIIIIIIIIIIIIIII4II44444444444444444444444A2IAAAAAAAAAAAAA
IIIIIIIIIIIIIIIIIIIIII4II44444444444444444444444A24AAAAAAAAAAAAA
IIIIIIIIIIIIIIIIIIIIII4II44444444444444444444444A24AAAAAAIAAAAAA
IIIIIIIIIIIIIIIIIIIIII4II44444444444444444444444A24AAAAAAIAAIAAA
IIIIIIIIIIIIIIIIIIIIII4II44444444444444444444444A24AAAAAAIAA4AAA
IIIIIIIIIIIIIIIIIIIIII4II44444444444444444444444A24AAAAAA4AA4AAA
IIIIIIIIIIIIIIIIIIIIII4II44444444444444444444444A24AAAAAAAAA4AAA
IIIIIIIIIIIIIIIIIIIIII4II44444444444444444444444A2AAAAAAAAAA4AAA
IIIIIIIIIIIIIIIIIIIIII4II44444444444444444444444A2AAAAAAAAAA2AAA
IIIIIIIIIIIIIIIIIIIIII4II44444444444444444444444A2AAAAAAAAAAAAAA
IIIIIIIIIIIIIIIIIIIIII4II44444444444444444444444A2AAAAIAAAAAAAAA
IIIIIIIIIIIIIIIIIIIIII4II44444444444444444444444A2AAAAAAAAAAAAAA
IIIIIIIIIIIIIIIIIIIIII4II44444444444444444444444A2AAAAAAAAAAAAIA
IIIIIIIIIIIIIIIIIIIIII4II44444444444444444444444A2AAAAAAAAAAAAII
IIIIIIIIIIIIIIIIIIIIII4II44444444444444444444444A2IAAAAAAAAAAAII
IIIIIIIIIIIIIIIIIIIIII4II44444444444444444444444A2IAAAAAAAAAAA44
IIIIIIIIIIIIIIIIIIIIII4II44444444444444444444444A2AAAAAAAAAAAA44
IIIIIIIIIIIIIIIIIIIIII4II44444444444444444444444A2AAAAAAAAAAAA24
IIIIIIIIIIIIIIIIIIIIII4II44444444444444444444444A2AAAAAAAAAAAA22
IIIIIIIIIIIIIIIIIIIIII4II44444444444444444444444A2AAAAAAAAAAAAA2
IIIIIIIIIIIIIIIIIIIIII4II44444444444444444444444A2AAAAAAAAAAAAAA
IIIIIIIIIIIIIIIIIIIIII4II44444444444444444444444A2AAAAAAAAAAAIAA
IIIIIIIIIIIIIIIIIIIIII4II44444444444444444444444A2AAAAAAAAAAA2AA
IIIIIIIIIIIIIIIIIIIIII4II44444444444444444444444A2AAAAAAAAAAAAAA
IIIIIIIIIIIIIIIIIIIIII4II44444444444444444444444A2AAAAIAAAAAAAAA
IIIIIIIIIIIIIIIIIIIIII4II44444444444444444444444A2AAAA2AAAAAAAAA
IIIIIIIIIIIIIIIIIIIIII4II44444444444444444444444A2AAAI2AAAAAAAAA
IIIIIIIIIIIIIIIIIIIIII4II44444444444444444444444A2AAA22AAAAAAAAA
IIIIIIIIIIIIIIIIIIIIII4II44444444444444444444444A2AAAA2AAAAAAAAA
IIIIIIIIIIIIIIIIIIIIII4II44444444444444444444444A2AAAAAAAAAAAAAA
IIIIIIIIIIIIIIIIIIIIII4II44444444444444444444444A2AAAAAAAAAAAAIA
IIIIIIIIIIIIIIIIIIIIII4II44444444444444444444444A2AAAAAAAAAAAA2A
IIIIIIIIIIIIIIIIIIIIII4II44444444444444444444444A2AAAAAAAAAAAAAA
IIIIIIIIIIIIIIIIIIIIII4II44444444444444444444444A2AAAAAAAIAAAAAA
IIIIIIIIIIIIIIIIIIIIII4II44444444444444444444444A2AAAAAAA4AAAAAA
IIIIIIIIIIIIIIIIIIIIII4II44444444444444444444444A2AAAAAAA2AAAAAA
IIIIIIIIIIIIIIIIIIIIII4II44444444444444444444444A2AAAAAAAAAAAAAA
IIIIIIIIIIIIIIIIIIIIII4II44444444444444444444444A2AAAAAAAAIAAAAA
IIIIIIIIIIIIIIIIIIIIII4II44444444444444444444444A2AAAAAAAA2AAAAA
IIIIIIIIIIIIIIIIIIIIII4II44444444444444444444444A2AAAAAAAAAAAAAA
IIIIIIIIIIIIIIIIIIIIII4II44444444444444444444444A2AAAAAAAAAAAAIA
IIIIIIIIIIIIIIIIIIIIII4II44444444444444444444444A2AAAAAAAAAAAA4A
IIIIIIIIIIIIIIIIIIIIII4II44444444444444444444444A2AAAAAAAAAAAAAA
IIIIIIIIIIIIIIIIIIIIII4II44444444444444444444444A2AIAAAAAAAAAAAA
IIIIIIIIIIIIIIIIIIIIII4II44444444444444444444444A2A2AAAAAAAAAAAA
IIIIIIIIIIIIIIIIIIIIII4II44444444444444444444444A2AAAAAAAAAAAAAA
IIIIIIIIIIIIIIIIIIIIII4II44444444444444444444444A2AAAAAAAAIAAAAA
IIIIIIIIIIIIIIIIIIIIII4II44444444444444444444444A2AAAAAAAA2AAAAA
IIIIIIIIIIIIIIIIIIIIII4II44444444444444444444444A2AAAAAAAAAAAAAA
IIIIIIIIIIIIIIIIIIIIII4II44444444444444444444444A2AAAIAAAAAAAAAA
IIIIIIIIIIIIIIIIIIIIII4II44444444444444444444444A2AAAAAAAAAAAAAA
IIIIIIIIIIIIIIIIIIIIII4II44444444444444444444444A2AAAAAAIAAAAAAA
IIIIIIIIIIIIIIIIIIIIII4II44444444444444444444444A2IAAAAAIAAAAAAA
IIIIIIIIIIIIIIIIIIIIII4II44444444444444444444444A2AAAAAAIAAAAAAA
IIIIIIIIIIIIIIIIIIIIII4II44444444444444444444444A2AAAAAAAAAAAAAA
IIIIIIIIIIIIIIIIIIIIII4II44444444444444444444444A2AAAIAAAAAAAAAA
IIIIIIIIIIIIIIIIIIIIII4II44444444444444444444444A2AAAAAAAAAAAAAA
IIIIIIIIIIIIIIIIIIIIII4II44444444444444444444444A2AAAAAAAAAAAIAA
IIIIIIIIIIIIIIIIIIIIII4II44444444444444444444444A2AAAAAAAAAAA4AA
IIIIIIIIIIIIIIIIIIIIII4II44444444444444444444444A2AAAAAAAAAAA2AA
IIIIIIIIIIIIIIIIIIIIII4II44444444444444444444444A2AAAAAAAAAAAAAA
IIIIIIIIIIIIIIIIIIIIII4II44444444444444444444444A2AAAAAAAAAAAAAI
IIIIIIIIIIIIIIIIIIIIII4II44444444444444444444444A2AAAAAAAAAAAAA4
IIIIIIIIIIIIIIIIIIIIII4II44444444444444444444444A2AAAAAAAAAAAAA2
IIIIIIIIIIIIIIIIIIIIII4II44444444444444444444444A2AAAAAAAAAAAAAA
IIIIIIIIIIIIIIIIIIIIII4II44444444444444444444444A2AAAAAAAAAAAIAA
IIIIIIIIIIIIIIIIIIIIII4II44444444444444444444444A2AAAAAAAAAAA2AA
IIIIIIIIIIIIIIIIIIIIII4II44444444444444444444444A2AAAAAAAAAAAAAA
[MLOP] Prefetch Degree Mean: 6.79487
[MLOP] Prefetch Degree SD: 3.16879
[MLOP] Max Score Left Mean (%): 31.68846
[MLOP] Max Score Left SD (%): 13.20501
[MLOP] Max Score Right Mean (%): 59.69167
[MLOP] Max Score Right SD (%): 16.31411

Channel_0_RQ_row_buffer_hit 243473
Channel_0_RQ_row_buffer_miss 750757
Channel_0_WQ_row_buffer_hit 207368
Channel_0_WQ_row_buffer_miss 650440
Channel_0_WQ_full 33293
Channel_0_dbus_congested 1538047

avg_congested_cycle 11

DRAM_bw_pochs 5592695
DRAM_bw_level_0 5438208
DRAM_bw_level_1 98034
DRAM_bw_level_2 44708
DRAM_bw_level_3 11745
