*************************************************
   ChampSim Multicore Out-of-Order Simulator
   Last compiled: Dec 11 2024 17:59:53
*************************************************
parsing config file: /home/functionmain/桌面/Pythia/config/nopref.ini

trace_0 /home/functionmain/桌面/Pythia/traces/445.gobmk-36B.champsimtrace.xz
adding L2C_PREFETCHER: NONE
Initialize SHIP state
warmup_instructions 100000000
simulation_instructions 500000000
champsim_seed 171
measure_ipc 0
measure_ipc_epoch 1000
measure_dram_bw 1
measure_dram_bw_epoch 256
measure_cache_acc 1
measure_cache_acc_epoch 1024
l1d_perfect 0
l2c_perfect 0
llc_perfect 0
l1d_semi_perfect 0
l2c_semi_perfect 0
llc_semi_perfect 0
semi_perfect_cache_page_buffer_size 64

num_cpus 1
cpu_freq 4000
dram_io_freq 600
page_size 4096
block_size 64
max_read_per_cycle 8
max_fill_per_cycle 1
dram_channels 1
log2_dram_channels 0
dram_ranks 1
dram_banks 8
dram_rows 65536
dram_columns 128
dram_row_size 8
dram_size 4096
dram_pages 1048576

fetch_width 6
decode_width 6
exec_width 4
lq_width 2
sq_width 2
retire_width 4
scheduler_size 128
branch_mispredict_penalty 20
rob_size 256
lq_size 72
sq_size 56
num_instr_destinations_sparc 4
num_instr_destinations 2
num_instr_sources 4

itlb_set 16
itlb_way 8
itlb_rq_size 16
itlb_wq_size 16
itlb_pq_size 0
itlb_mshr_size 8
itlb_latency 1

dtlb_set 16
dtlb_way 4
dtlb_rq_size 16
dtlb_wq_size 16
dtlb_pq_size 0
dtlb_mshr_size 8
dtlb_latency 1

stlb_set 128
stlb_way 12
stlb_rq_size 32
stlb_wq_size 32
stlb_pq_size 0
stlb_mshr_size 16
stlb_latency 8

l1i_size 32
l1i_set 64
l1i_way 8
l1i_rq_size 64
l1i_wq_size 64
l1i_pq_size 8
l1i_mshr_size 8
l1i_latency 1

l1d_size 32
l1d_set 64
l1d_way 8
l1d_rq_size 64
l1d_wq_size 64
l1d_pq_size 8
l1d_mshr_size 16
l1d_latency 4

l2c_size 256
l2c_set 512
l2c_way 8
l2c_rq_size 32
l2c_wq_size 32
l2c_pq_size 32
l2c_mshr_size 32
l2c_latency 10

llc_size 2048
llc_set 2048
llc_way 16
llc_rq_size 32
llc_wq_size 32
llc_pq_size 32
llc_mshr_size 64
llc_latency 20

dram_channel_width 8
dram_wq_size 64
dram_rq_size 64
tRP 15
tRCD 15
tCAS 12.5
dram_dbus_turn_around_time 30
dram_write_high_wm 56
dram_write_low_wm 48
min_dram_writes_per_switch 16
dram_mtps 600
dram_dbus_return_time 53


Heartbeat CPU  0 instructions:    1000000 cycles:    1143434 heartbeat IPC: 0.87456 cumulative IPC: 0.87456 (Simulation time: 0 hr 0 min 1 sec) 
Heartbeat CPU  0 instructions:    2000000 cycles:    2306985 heartbeat IPC: 0.85944 cumulative IPC: 0.86693 (Simulation time: 0 hr 0 min 3 sec) 
Heartbeat CPU  0 instructions:    3000000 cycles:    3459506 heartbeat IPC: 0.86766 cumulative IPC: 0.86718 (Simulation time: 0 hr 0 min 4 sec) 
Heartbeat CPU  0 instructions:    4000000 cycles:    4510942 heartbeat IPC: 0.95108 cumulative IPC: 0.88673 (Simulation time: 0 hr 0 min 5 sec) 
Heartbeat CPU  0 instructions:    5000001 cycles:    5594750 heartbeat IPC: 0.92267 cumulative IPC: 0.89370 (Simulation time: 0 hr 0 min 6 sec) 
Heartbeat CPU  0 instructions:    6000000 cycles:    6675774 heartbeat IPC: 0.92505 cumulative IPC: 0.89877 (Simulation time: 0 hr 0 min 7 sec) 
Heartbeat CPU  0 instructions:    7000002 cycles:    7777082 heartbeat IPC: 0.90801 cumulative IPC: 0.90008 (Simulation time: 0 hr 0 min 8 sec) 
Heartbeat CPU  0 instructions:    8000000 cycles:    8892109 heartbeat IPC: 0.89684 cumulative IPC: 0.89967 (Simulation time: 0 hr 0 min 10 sec) 
Heartbeat CPU  0 instructions:    9000002 cycles:   10003909 heartbeat IPC: 0.89944 cumulative IPC: 0.89965 (Simulation time: 0 hr 0 min 11 sec) 
Heartbeat CPU  0 instructions:   10000000 cycles:   10943267 heartbeat IPC: 1.06455 cumulative IPC: 0.91380 (Simulation time: 0 hr 0 min 12 sec) 
Heartbeat CPU  0 instructions:   11000002 cycles:   11927191 heartbeat IPC: 1.01634 cumulative IPC: 0.92226 (Simulation time: 0 hr 0 min 13 sec) 
Heartbeat CPU  0 instructions:   12000000 cycles:   13065627 heartbeat IPC: 0.87840 cumulative IPC: 0.91844 (Simulation time: 0 hr 0 min 14 sec) 
Heartbeat CPU  0 instructions:   13000001 cycles:   14086519 heartbeat IPC: 0.97954 cumulative IPC: 0.92287 (Simulation time: 0 hr 0 min 15 sec) 
Heartbeat CPU  0 instructions:   14000001 cycles:   15203794 heartbeat IPC: 0.89503 cumulative IPC: 0.92082 (Simulation time: 0 hr 0 min 17 sec) 
Heartbeat CPU  0 instructions:   15000003 cycles:   16233400 heartbeat IPC: 0.97125 cumulative IPC: 0.92402 (Simulation time: 0 hr 0 min 18 sec) 
Heartbeat CPU  0 instructions:   16000000 cycles:   17275763 heartbeat IPC: 0.95936 cumulative IPC: 0.92615 (Simulation time: 0 hr 0 min 19 sec) 
Heartbeat CPU  0 instructions:   17000001 cycles:   18300779 heartbeat IPC: 0.97560 cumulative IPC: 0.92892 (Simulation time: 0 hr 0 min 20 sec) 
Heartbeat CPU  0 instructions:   18000001 cycles:   19405324 heartbeat IPC: 0.90535 cumulative IPC: 0.92758 (Simulation time: 0 hr 0 min 21 sec) 
Heartbeat CPU  0 instructions:   19000003 cycles:   20433851 heartbeat IPC: 0.97227 cumulative IPC: 0.92983 (Simulation time: 0 hr 0 min 22 sec) 
Heartbeat CPU  0 instructions:   20000000 cycles:   21408786 heartbeat IPC: 1.02571 cumulative IPC: 0.93420 (Simulation time: 0 hr 0 min 24 sec) 
Heartbeat CPU  0 instructions:   21000002 cycles:   22413771 heartbeat IPC: 0.99504 cumulative IPC: 0.93692 (Simulation time: 0 hr 0 min 25 sec) 
Heartbeat CPU  0 instructions:   22000002 cycles:   23406263 heartbeat IPC: 1.00756 cumulative IPC: 0.93992 (Simulation time: 0 hr 0 min 26 sec) 
Heartbeat CPU  0 instructions:   23000000 cycles:   24446367 heartbeat IPC: 0.96144 cumulative IPC: 0.94084 (Simulation time: 0 hr 0 min 27 sec) 
Heartbeat CPU  0 instructions:   24000000 cycles:   25403194 heartbeat IPC: 1.04512 cumulative IPC: 0.94476 (Simulation time: 0 hr 0 min 28 sec) 
Heartbeat CPU  0 instructions:   25000000 cycles:   26461493 heartbeat IPC: 0.94491 cumulative IPC: 0.94477 (Simulation time: 0 hr 0 min 29 sec) 
Heartbeat CPU  0 instructions:   26000001 cycles:   27524023 heartbeat IPC: 0.94115 cumulative IPC: 0.94463 (Simulation time: 0 hr 0 min 31 sec) 
Heartbeat CPU  0 instructions:   27000001 cycles:   28512535 heartbeat IPC: 1.01162 cumulative IPC: 0.94695 (Simulation time: 0 hr 0 min 32 sec) 
Heartbeat CPU  0 instructions:   28000000 cycles:   29574543 heartbeat IPC: 0.94161 cumulative IPC: 0.94676 (Simulation time: 0 hr 0 min 33 sec) 
Heartbeat CPU  0 instructions:   29000002 cycles:   30611370 heartbeat IPC: 0.96448 cumulative IPC: 0.94736 (Simulation time: 0 hr 0 min 34 sec) 
Heartbeat CPU  0 instructions:   30000001 cycles:   31608732 heartbeat IPC: 1.00264 cumulative IPC: 0.94910 (Simulation time: 0 hr 0 min 35 sec) 
Heartbeat CPU  0 instructions:   31000002 cycles:   32718803 heartbeat IPC: 0.90084 cumulative IPC: 0.94747 (Simulation time: 0 hr 0 min 37 sec) 
Heartbeat CPU  0 instructions:   32000000 cycles:   33767860 heartbeat IPC: 0.95324 cumulative IPC: 0.94765 (Simulation time: 0 hr 0 min 38 sec) 
Heartbeat CPU  0 instructions:   33000000 cycles:   34834808 heartbeat IPC: 0.93725 cumulative IPC: 0.94733 (Simulation time: 0 hr 0 min 39 sec) 
Heartbeat CPU  0 instructions:   34000000 cycles:   35881810 heartbeat IPC: 0.95511 cumulative IPC: 0.94756 (Simulation time: 0 hr 0 min 40 sec) 
Heartbeat CPU  0 instructions:   35000003 cycles:   36878434 heartbeat IPC: 1.00339 cumulative IPC: 0.94906 (Simulation time: 0 hr 0 min 41 sec) 
Heartbeat CPU  0 instructions:   36000000 cycles:   37974859 heartbeat IPC: 0.91205 cumulative IPC: 0.94800 (Simulation time: 0 hr 0 min 43 sec) 
Heartbeat CPU  0 instructions:   37000003 cycles:   39036627 heartbeat IPC: 0.94183 cumulative IPC: 0.94783 (Simulation time: 0 hr 0 min 44 sec) 
Heartbeat CPU  0 instructions:   38000002 cycles:   40060229 heartbeat IPC: 0.97694 cumulative IPC: 0.94857 (Simulation time: 0 hr 0 min 45 sec) 
Heartbeat CPU  0 instructions:   39000003 cycles:   41112976 heartbeat IPC: 0.94990 cumulative IPC: 0.94861 (Simulation time: 0 hr 0 min 46 sec) 
Heartbeat CPU  0 instructions:   40000000 cycles:   42188675 heartbeat IPC: 0.92963 cumulative IPC: 0.94812 (Simulation time: 0 hr 0 min 47 sec) 
Heartbeat CPU  0 instructions:   41000003 cycles:   43311038 heartbeat IPC: 0.89098 cumulative IPC: 0.94664 (Simulation time: 0 hr 0 min 48 sec) 
Heartbeat CPU  0 instructions:   42000001 cycles:   44341812 heartbeat IPC: 0.97014 cumulative IPC: 0.94719 (Simulation time: 0 hr 0 min 50 sec) 
Heartbeat CPU  0 instructions:   43000002 cycles:   45362221 heartbeat IPC: 0.98000 cumulative IPC: 0.94793 (Simulation time: 0 hr 0 min 51 sec) 
Heartbeat CPU  0 instructions:   44000000 cycles:   46445803 heartbeat IPC: 0.92286 cumulative IPC: 0.94734 (Simulation time: 0 hr 0 min 52 sec) 
Heartbeat CPU  0 instructions:   45000001 cycles:   47560626 heartbeat IPC: 0.89700 cumulative IPC: 0.94616 (Simulation time: 0 hr 0 min 53 sec) 
Heartbeat CPU  0 instructions:   46000002 cycles:   48617989 heartbeat IPC: 0.94575 cumulative IPC: 0.94615 (Simulation time: 0 hr 0 min 54 sec) 
Heartbeat CPU  0 instructions:   47000003 cycles:   49585773 heartbeat IPC: 1.03329 cumulative IPC: 0.94785 (Simulation time: 0 hr 0 min 55 sec) 
Heartbeat CPU  0 instructions:   48000000 cycles:   50587568 heartbeat IPC: 0.99821 cumulative IPC: 0.94885 (Simulation time: 0 hr 0 min 57 sec) 
Heartbeat CPU  0 instructions:   49000000 cycles:   51644152 heartbeat IPC: 0.94645 cumulative IPC: 0.94880 (Simulation time: 0 hr 0 min 58 sec) 
Heartbeat CPU  0 instructions:   50000001 cycles:   52690070 heartbeat IPC: 0.95610 cumulative IPC: 0.94895 (Simulation time: 0 hr 0 min 59 sec) 
Heartbeat CPU  0 instructions:   51000001 cycles:   53739006 heartbeat IPC: 0.95335 cumulative IPC: 0.94903 (Simulation time: 0 hr 1 min 0 sec) 
Heartbeat CPU  0 instructions:   52000000 cycles:   54806775 heartbeat IPC: 0.93653 cumulative IPC: 0.94879 (Simulation time: 0 hr 1 min 1 sec) 
Heartbeat CPU  0 instructions:   53000000 cycles:   55914087 heartbeat IPC: 0.90309 cumulative IPC: 0.94788 (Simulation time: 0 hr 1 min 3 sec) 
Heartbeat CPU  0 instructions:   54000003 cycles:   57031571 heartbeat IPC: 0.89487 cumulative IPC: 0.94684 (Simulation time: 0 hr 1 min 4 sec) 
Heartbeat CPU  0 instructions:   55000003 cycles:   58119672 heartbeat IPC: 0.91903 cumulative IPC: 0.94632 (Simulation time: 0 hr 1 min 5 sec) 
Heartbeat CPU  0 instructions:   56000000 cycles:   59180443 heartbeat IPC: 0.94271 cumulative IPC: 0.94626 (Simulation time: 0 hr 1 min 6 sec) 
Heartbeat CPU  0 instructions:   57000000 cycles:   60286754 heartbeat IPC: 0.90390 cumulative IPC: 0.94548 (Simulation time: 0 hr 1 min 7 sec) 
Heartbeat CPU  0 instructions:   58000000 cycles:   61331006 heartbeat IPC: 0.95762 cumulative IPC: 0.94569 (Simulation time: 0 hr 1 min 9 sec) 
Heartbeat CPU  0 instructions:   59000003 cycles:   62441778 heartbeat IPC: 0.90028 cumulative IPC: 0.94488 (Simulation time: 0 hr 1 min 10 sec) 
Heartbeat CPU  0 instructions:   60000000 cycles:   63510725 heartbeat IPC: 0.93550 cumulative IPC: 0.94472 (Simulation time: 0 hr 1 min 11 sec) 
Heartbeat CPU  0 instructions:   61000001 cycles:   64651622 heartbeat IPC: 0.87650 cumulative IPC: 0.94352 (Simulation time: 0 hr 1 min 12 sec) 
Heartbeat CPU  0 instructions:   62000001 cycles:   65702504 heartbeat IPC: 0.95158 cumulative IPC: 0.94365 (Simulation time: 0 hr 1 min 13 sec) 
Heartbeat CPU  0 instructions:   63000000 cycles:   66753861 heartbeat IPC: 0.95115 cumulative IPC: 0.94377 (Simulation time: 0 hr 1 min 15 sec) 
Heartbeat CPU  0 instructions:   64000000 cycles:   67827568 heartbeat IPC: 0.93135 cumulative IPC: 0.94357 (Simulation time: 0 hr 1 min 16 sec) 
Heartbeat CPU  0 instructions:   65000000 cycles:   68909126 heartbeat IPC: 0.92459 cumulative IPC: 0.94327 (Simulation time: 0 hr 1 min 17 sec) 
Heartbeat CPU  0 instructions:   66000000 cycles:   70000435 heartbeat IPC: 0.91633 cumulative IPC: 0.94285 (Simulation time: 0 hr 1 min 18 sec) 
Heartbeat CPU  0 instructions:   67000000 cycles:   71031910 heartbeat IPC: 0.96949 cumulative IPC: 0.94324 (Simulation time: 0 hr 1 min 19 sec) 
Heartbeat CPU  0 instructions:   68000000 cycles:   72087688 heartbeat IPC: 0.94717 cumulative IPC: 0.94330 (Simulation time: 0 hr 1 min 20 sec) 
Heartbeat CPU  0 instructions:   69000003 cycles:   73175877 heartbeat IPC: 0.91896 cumulative IPC: 0.94293 (Simulation time: 0 hr 1 min 22 sec) 
Heartbeat CPU  0 instructions:   70000001 cycles:   74357670 heartbeat IPC: 0.84617 cumulative IPC: 0.94140 (Simulation time: 0 hr 1 min 23 sec) 
Heartbeat CPU  0 instructions:   71000001 cycles:   75376315 heartbeat IPC: 0.98170 cumulative IPC: 0.94194 (Simulation time: 0 hr 1 min 24 sec) 
Heartbeat CPU  0 instructions:   72000000 cycles:   76448985 heartbeat IPC: 0.93225 cumulative IPC: 0.94180 (Simulation time: 0 hr 1 min 25 sec) 
Heartbeat CPU  0 instructions:   73000002 cycles:   77576985 heartbeat IPC: 0.88653 cumulative IPC: 0.94100 (Simulation time: 0 hr 1 min 26 sec) 
Heartbeat CPU  0 instructions:   74000000 cycles:   78653987 heartbeat IPC: 0.92850 cumulative IPC: 0.94083 (Simulation time: 0 hr 1 min 28 sec) 
Heartbeat CPU  0 instructions:   75000001 cycles:   79732426 heartbeat IPC: 0.92727 cumulative IPC: 0.94065 (Simulation time: 0 hr 1 min 29 sec) 
Heartbeat CPU  0 instructions:   76000000 cycles:   80709341 heartbeat IPC: 1.02363 cumulative IPC: 0.94165 (Simulation time: 0 hr 1 min 30 sec) 
Heartbeat CPU  0 instructions:   77000001 cycles:   81797632 heartbeat IPC: 0.91887 cumulative IPC: 0.94135 (Simulation time: 0 hr 1 min 31 sec) 
Heartbeat CPU  0 instructions:   78000000 cycles:   82848035 heartbeat IPC: 0.95201 cumulative IPC: 0.94148 (Simulation time: 0 hr 1 min 32 sec) 
Heartbeat CPU  0 instructions:   79000000 cycles:   83961651 heartbeat IPC: 0.89798 cumulative IPC: 0.94091 (Simulation time: 0 hr 1 min 33 sec) 
Heartbeat CPU  0 instructions:   80000000 cycles:   84964795 heartbeat IPC: 0.99687 cumulative IPC: 0.94157 (Simulation time: 0 hr 1 min 35 sec) 
Heartbeat CPU  0 instructions:   81000003 cycles:   85982535 heartbeat IPC: 0.98257 cumulative IPC: 0.94205 (Simulation time: 0 hr 1 min 36 sec) 
Heartbeat CPU  0 instructions:   82000002 cycles:   87078855 heartbeat IPC: 0.91214 cumulative IPC: 0.94168 (Simulation time: 0 hr 1 min 37 sec) 
Heartbeat CPU  0 instructions:   83000001 cycles:   88172557 heartbeat IPC: 0.91432 cumulative IPC: 0.94134 (Simulation time: 0 hr 1 min 38 sec) 
Heartbeat CPU  0 instructions:   84000000 cycles:   89126239 heartbeat IPC: 1.04857 cumulative IPC: 0.94248 (Simulation time: 0 hr 1 min 39 sec) 
Heartbeat CPU  0 instructions:   85000001 cycles:   90266537 heartbeat IPC: 0.87696 cumulative IPC: 0.94166 (Simulation time: 0 hr 1 min 41 sec) 
Heartbeat CPU  0 instructions:   86000000 cycles:   91429613 heartbeat IPC: 0.85979 cumulative IPC: 0.94061 (Simulation time: 0 hr 1 min 42 sec) 
Heartbeat CPU  0 instructions:   87000000 cycles:   92527568 heartbeat IPC: 0.91078 cumulative IPC: 0.94026 (Simulation time: 0 hr 1 min 43 sec) 
Heartbeat CPU  0 instructions:   88000000 cycles:   93622929 heartbeat IPC: 0.91294 cumulative IPC: 0.93994 (Simulation time: 0 hr 1 min 44 sec) 
Heartbeat CPU  0 instructions:   89000001 cycles:   94765390 heartbeat IPC: 0.87530 cumulative IPC: 0.93916 (Simulation time: 0 hr 1 min 45 sec) 
Heartbeat CPU  0 instructions:   90000000 cycles:   95899973 heartbeat IPC: 0.88138 cumulative IPC: 0.93848 (Simulation time: 0 hr 1 min 46 sec) 
Heartbeat CPU  0 instructions:   91000000 cycles:   97065366 heartbeat IPC: 0.85808 cumulative IPC: 0.93751 (Simulation time: 0 hr 1 min 48 sec) 
Heartbeat CPU  0 instructions:   92000000 cycles:   98100784 heartbeat IPC: 0.96579 cumulative IPC: 0.93781 (Simulation time: 0 hr 1 min 49 sec) 
Heartbeat CPU  0 instructions:   93000003 cycles:   99065073 heartbeat IPC: 1.03704 cumulative IPC: 0.93878 (Simulation time: 0 hr 1 min 50 sec) 
Heartbeat CPU  0 instructions:   94000003 cycles:  100194133 heartbeat IPC: 0.88569 cumulative IPC: 0.93818 (Simulation time: 0 hr 1 min 51 sec) 
Heartbeat CPU  0 instructions:   95000000 cycles:  101248123 heartbeat IPC: 0.94877 cumulative IPC: 0.93829 (Simulation time: 0 hr 1 min 52 sec) 
Heartbeat CPU  0 instructions:   96000000 cycles:  102338314 heartbeat IPC: 0.91727 cumulative IPC: 0.93807 (Simulation time: 0 hr 1 min 54 sec) 
Heartbeat CPU  0 instructions:   97000000 cycles:  103456251 heartbeat IPC: 0.89450 cumulative IPC: 0.93759 (Simulation time: 0 hr 1 min 55 sec) 
Heartbeat CPU  0 instructions:   98000001 cycles:  104448841 heartbeat IPC: 1.00747 cumulative IPC: 0.93826 (Simulation time: 0 hr 1 min 56 sec) 
Heartbeat CPU  0 instructions:   99000000 cycles:  105477120 heartbeat IPC: 0.97250 cumulative IPC: 0.93859 (Simulation time: 0 hr 1 min 57 sec) 
Heartbeat CPU  0 instructions:  100000000 cycles:  106534272 heartbeat IPC: 0.94594 cumulative IPC: 0.93867 (Simulation time: 0 hr 1 min 58 sec) 

Warmup complete CPU  0 instructions:  100000001 cycles:  106534274 (Simulation time: 0 hr 1 min 58 sec) 

Heartbeat CPU  0 instructions:  101000000 cycles:  109328513 heartbeat IPC: 0.35788 cumulative IPC: 0.35788 (Simulation time: 0 hr 2 min 0 sec) 
Heartbeat CPU  0 instructions:  102000001 cycles:  112016989 heartbeat IPC: 0.37196 cumulative IPC: 0.36478 (Simulation time: 0 hr 2 min 2 sec) 
Heartbeat CPU  0 instructions:  103000003 cycles:  114673274 heartbeat IPC: 0.37647 cumulative IPC: 0.36860 (Simulation time: 0 hr 2 min 4 sec) 
Heartbeat CPU  0 instructions:  104000000 cycles:  117221636 heartbeat IPC: 0.39241 cumulative IPC: 0.37427 (Simulation time: 0 hr 2 min 6 sec) 
Heartbeat CPU  0 instructions:  105000000 cycles:  120020084 heartbeat IPC: 0.35734 cumulative IPC: 0.37076 (Simulation time: 0 hr 2 min 8 sec) 
Heartbeat CPU  0 instructions:  106000000 cycles:  122747998 heartbeat IPC: 0.36658 cumulative IPC: 0.37006 (Simulation time: 0 hr 2 min 10 sec) 
Heartbeat CPU  0 instructions:  107000001 cycles:  125360705 heartbeat IPC: 0.38275 cumulative IPC: 0.37182 (Simulation time: 0 hr 2 min 11 sec) 
Heartbeat CPU  0 instructions:  108000000 cycles:  128047756 heartbeat IPC: 0.37215 cumulative IPC: 0.37186 (Simulation time: 0 hr 2 min 13 sec) 
Heartbeat CPU  0 instructions:  109000002 cycles:  130715283 heartbeat IPC: 0.37488 cumulative IPC: 0.37219 (Simulation time: 0 hr 2 min 15 sec) 
Heartbeat CPU  0 instructions:  110000002 cycles:  133383479 heartbeat IPC: 0.37479 cumulative IPC: 0.37245 (Simulation time: 0 hr 2 min 17 sec) 
Heartbeat CPU  0 instructions:  111000000 cycles:  135935028 heartbeat IPC: 0.39192 cumulative IPC: 0.37414 (Simulation time: 0 hr 2 min 19 sec) 
Heartbeat CPU  0 instructions:  112000000 cycles:  138699129 heartbeat IPC: 0.36178 cumulative IPC: 0.37308 (Simulation time: 0 hr 2 min 21 sec) 
Heartbeat CPU  0 instructions:  113000000 cycles:  141310646 heartbeat IPC: 0.38292 cumulative IPC: 0.37382 (Simulation time: 0 hr 2 min 23 sec) 
Heartbeat CPU  0 instructions:  114000000 cycles:  144141834 heartbeat IPC: 0.35321 cumulative IPC: 0.37227 (Simulation time: 0 hr 2 min 25 sec) 
Heartbeat CPU  0 instructions:  115000003 cycles:  146885349 heartbeat IPC: 0.36450 cumulative IPC: 0.37174 (Simulation time: 0 hr 2 min 26 sec) 
Heartbeat CPU  0 instructions:  116000000 cycles:  149585037 heartbeat IPC: 0.37041 cumulative IPC: 0.37165 (Simulation time: 0 hr 2 min 28 sec) 
Heartbeat CPU  0 instructions:  117000001 cycles:  152246055 heartbeat IPC: 0.37580 cumulative IPC: 0.37190 (Simulation time: 0 hr 2 min 30 sec) 
Heartbeat CPU  0 instructions:  118000000 cycles:  154884053 heartbeat IPC: 0.37907 cumulative IPC: 0.37229 (Simulation time: 0 hr 2 min 32 sec) 
Heartbeat CPU  0 instructions:  119000001 cycles:  157693044 heartbeat IPC: 0.35600 cumulative IPC: 0.37139 (Simulation time: 0 hr 2 min 34 sec) 
Heartbeat CPU  0 instructions:  120000000 cycles:  160397418 heartbeat IPC: 0.36977 cumulative IPC: 0.37131 (Simulation time: 0 hr 2 min 36 sec) 
Heartbeat CPU  0 instructions:  121000000 cycles:  163162908 heartbeat IPC: 0.36160 cumulative IPC: 0.37084 (Simulation time: 0 hr 2 min 38 sec) 
Heartbeat CPU  0 instructions:  122000001 cycles:  165871901 heartbeat IPC: 0.36914 cumulative IPC: 0.37076 (Simulation time: 0 hr 2 min 40 sec) 
Heartbeat CPU  0 instructions:  123000000 cycles:  168507205 heartbeat IPC: 0.37946 cumulative IPC: 0.37113 (Simulation time: 0 hr 2 min 42 sec) 
Heartbeat CPU  0 instructions:  124000000 cycles:  171225383 heartbeat IPC: 0.36789 cumulative IPC: 0.37099 (Simulation time: 0 hr 2 min 44 sec) 
Heartbeat CPU  0 instructions:  125000001 cycles:  174016718 heartbeat IPC: 0.35825 cumulative IPC: 0.37047 (Simulation time: 0 hr 2 min 46 sec) 
Heartbeat CPU  0 instructions:  126000000 cycles:  176786739 heartbeat IPC: 0.36101 cumulative IPC: 0.37009 (Simulation time: 0 hr 2 min 47 sec) 
Heartbeat CPU  0 instructions:  127000000 cycles:  179355014 heartbeat IPC: 0.38937 cumulative IPC: 0.37077 (Simulation time: 0 hr 2 min 49 sec) 
Heartbeat CPU  0 instructions:  128000000 cycles:  182078208 heartbeat IPC: 0.36722 cumulative IPC: 0.37065 (Simulation time: 0 hr 2 min 51 sec) 
Heartbeat CPU  0 instructions:  129000001 cycles:  184877163 heartbeat IPC: 0.35728 cumulative IPC: 0.37017 (Simulation time: 0 hr 2 min 53 sec) 
Heartbeat CPU  0 instructions:  130000000 cycles:  187589318 heartbeat IPC: 0.36871 cumulative IPC: 0.37012 (Simulation time: 0 hr 2 min 55 sec) 
Heartbeat CPU  0 instructions:  131000001 cycles:  190192059 heartbeat IPC: 0.38421 cumulative IPC: 0.37056 (Simulation time: 0 hr 2 min 57 sec) 
Heartbeat CPU  0 instructions:  132000000 cycles:  192821834 heartbeat IPC: 0.38026 cumulative IPC: 0.37085 (Simulation time: 0 hr 2 min 59 sec) 
Heartbeat CPU  0 instructions:  133000000 cycles:  195491274 heartbeat IPC: 0.37461 cumulative IPC: 0.37097 (Simulation time: 0 hr 3 min 1 sec) 
Heartbeat CPU  0 instructions:  134000001 cycles:  198205979 heartbeat IPC: 0.36836 cumulative IPC: 0.37089 (Simulation time: 0 hr 3 min 2 sec) 
Heartbeat CPU  0 instructions:  135000002 cycles:  200966701 heartbeat IPC: 0.36222 cumulative IPC: 0.37064 (Simulation time: 0 hr 3 min 4 sec) 
Heartbeat CPU  0 instructions:  136000000 cycles:  203483118 heartbeat IPC: 0.39739 cumulative IPC: 0.37133 (Simulation time: 0 hr 3 min 6 sec) 
Heartbeat CPU  0 instructions:  137000002 cycles:  206185038 heartbeat IPC: 0.37011 cumulative IPC: 0.37130 (Simulation time: 0 hr 3 min 8 sec) 
Heartbeat CPU  0 instructions:  138000000 cycles:  208909923 heartbeat IPC: 0.36699 cumulative IPC: 0.37118 (Simulation time: 0 hr 3 min 10 sec) 
Heartbeat CPU  0 instructions:  139000000 cycles:  211572610 heartbeat IPC: 0.37556 cumulative IPC: 0.37129 (Simulation time: 0 hr 3 min 12 sec) 
Heartbeat CPU  0 instructions:  140000000 cycles:  214376767 heartbeat IPC: 0.35661 cumulative IPC: 0.37091 (Simulation time: 0 hr 3 min 14 sec) 
Heartbeat CPU  0 instructions:  141000000 cycles:  216748404 heartbeat IPC: 0.42165 cumulative IPC: 0.37200 (Simulation time: 0 hr 3 min 15 sec) 
Heartbeat CPU  0 instructions:  142000000 cycles:  219178901 heartbeat IPC: 0.41144 cumulative IPC: 0.37285 (Simulation time: 0 hr 3 min 17 sec) 
Heartbeat CPU  0 instructions:  143000000 cycles:  222028088 heartbeat IPC: 0.35098 cumulative IPC: 0.37231 (Simulation time: 0 hr 3 min 19 sec) 
Heartbeat CPU  0 instructions:  144000000 cycles:  224851473 heartbeat IPC: 0.35418 cumulative IPC: 0.37188 (Simulation time: 0 hr 3 min 21 sec) 
Heartbeat CPU  0 instructions:  145000003 cycles:  227558811 heartbeat IPC: 0.36937 cumulative IPC: 0.37183 (Simulation time: 0 hr 3 min 23 sec) 
Heartbeat CPU  0 instructions:  146000000 cycles:  230324410 heartbeat IPC: 0.36158 cumulative IPC: 0.37160 (Simulation time: 0 hr 3 min 25 sec) 
Heartbeat CPU  0 instructions:  147000000 cycles:  233035805 heartbeat IPC: 0.36881 cumulative IPC: 0.37154 (Simulation time: 0 hr 3 min 27 sec) 
Heartbeat CPU  0 instructions:  148000000 cycles:  235786622 heartbeat IPC: 0.36353 cumulative IPC: 0.37137 (Simulation time: 0 hr 3 min 28 sec) 
Heartbeat CPU  0 instructions:  149000000 cycles:  238094431 heartbeat IPC: 0.43331 cumulative IPC: 0.37245 (Simulation time: 0 hr 3 min 30 sec) 
Heartbeat CPU  0 instructions:  150000000 cycles:  240396920 heartbeat IPC: 0.43431 cumulative IPC: 0.37352 (Simulation time: 0 hr 3 min 32 sec) 
Heartbeat CPU  0 instructions:  151000003 cycles:  242903955 heartbeat IPC: 0.39888 cumulative IPC: 0.37398 (Simulation time: 0 hr 3 min 34 sec) 
Heartbeat CPU  0 instructions:  152000000 cycles:  245759994 heartbeat IPC: 0.35013 cumulative IPC: 0.37349 (Simulation time: 0 hr 3 min 36 sec) 
Heartbeat CPU  0 instructions:  153000000 cycles:  248505480 heartbeat IPC: 0.36423 cumulative IPC: 0.37332 (Simulation time: 0 hr 3 min 37 sec) 
Heartbeat CPU  0 instructions:  154000000 cycles:  251230712 heartbeat IPC: 0.36694 cumulative IPC: 0.37320 (Simulation time: 0 hr 3 min 39 sec) 
Heartbeat CPU  0 instructions:  155000002 cycles:  253946567 heartbeat IPC: 0.36821 cumulative IPC: 0.37310 (Simulation time: 0 hr 3 min 41 sec) 
Heartbeat CPU  0 instructions:  156000000 cycles:  256689070 heartbeat IPC: 0.36463 cumulative IPC: 0.37295 (Simulation time: 0 hr 3 min 43 sec) 
Heartbeat CPU  0 instructions:  157000000 cycles:  259439123 heartbeat IPC: 0.36363 cumulative IPC: 0.37278 (Simulation time: 0 hr 3 min 45 sec) 
Heartbeat CPU  0 instructions:  158000002 cycles:  261418338 heartbeat IPC: 0.50525 cumulative IPC: 0.37447 (Simulation time: 0 hr 3 min 46 sec) 
Heartbeat CPU  0 instructions:  159000001 cycles:  263729938 heartbeat IPC: 0.43260 cumulative IPC: 0.37533 (Simulation time: 0 hr 3 min 48 sec) 
Heartbeat CPU  0 instructions:  160000000 cycles:  266458364 heartbeat IPC: 0.36651 cumulative IPC: 0.37518 (Simulation time: 0 hr 3 min 50 sec) 
Heartbeat CPU  0 instructions:  161000002 cycles:  269133998 heartbeat IPC: 0.37374 cumulative IPC: 0.37515 (Simulation time: 0 hr 3 min 52 sec) 
Heartbeat CPU  0 instructions:  162000000 cycles:  272015523 heartbeat IPC: 0.34704 cumulative IPC: 0.37466 (Simulation time: 0 hr 3 min 54 sec) 
Heartbeat CPU  0 instructions:  163000001 cycles:  274717946 heartbeat IPC: 0.37004 cumulative IPC: 0.37459 (Simulation time: 0 hr 3 min 56 sec) 
Heartbeat CPU  0 instructions:  164000000 cycles:  277431786 heartbeat IPC: 0.36848 cumulative IPC: 0.37449 (Simulation time: 0 hr 3 min 57 sec) 
Heartbeat CPU  0 instructions:  165000001 cycles:  280153575 heartbeat IPC: 0.36741 cumulative IPC: 0.37438 (Simulation time: 0 hr 3 min 59 sec) 
Heartbeat CPU  0 instructions:  166000001 cycles:  282898687 heartbeat IPC: 0.36428 cumulative IPC: 0.37423 (Simulation time: 0 hr 4 min 1 sec) 
Heartbeat CPU  0 instructions:  167000003 cycles:  285703788 heartbeat IPC: 0.35649 cumulative IPC: 0.37395 (Simulation time: 0 hr 4 min 3 sec) 
Heartbeat CPU  0 instructions:  168000000 cycles:  288445260 heartbeat IPC: 0.36477 cumulative IPC: 0.37381 (Simulation time: 0 hr 4 min 5 sec) 
Heartbeat CPU  0 instructions:  169000003 cycles:  291183065 heartbeat IPC: 0.36526 cumulative IPC: 0.37368 (Simulation time: 0 hr 4 min 7 sec) 
Heartbeat CPU  0 instructions:  170000001 cycles:  293918215 heartbeat IPC: 0.36561 cumulative IPC: 0.37356 (Simulation time: 0 hr 4 min 9 sec) 
Heartbeat CPU  0 instructions:  171000001 cycles:  295994511 heartbeat IPC: 0.48163 cumulative IPC: 0.37475 (Simulation time: 0 hr 4 min 10 sec) 
Heartbeat CPU  0 instructions:  172000000 cycles:  298439787 heartbeat IPC: 0.40895 cumulative IPC: 0.37518 (Simulation time: 0 hr 4 min 12 sec) 
Heartbeat CPU  0 instructions:  173000000 cycles:  301120994 heartbeat IPC: 0.37297 cumulative IPC: 0.37515 (Simulation time: 0 hr 4 min 14 sec) 
Heartbeat CPU  0 instructions:  174000000 cycles:  303591319 heartbeat IPC: 0.40481 cumulative IPC: 0.37553 (Simulation time: 0 hr 4 min 16 sec) 
Heartbeat CPU  0 instructions:  175000000 cycles:  306116747 heartbeat IPC: 0.39597 cumulative IPC: 0.37578 (Simulation time: 0 hr 4 min 18 sec) 
Heartbeat CPU  0 instructions:  176000000 cycles:  308815860 heartbeat IPC: 0.37049 cumulative IPC: 0.37571 (Simulation time: 0 hr 4 min 20 sec) 
Heartbeat CPU  0 instructions:  177000000 cycles:  311581782 heartbeat IPC: 0.36154 cumulative IPC: 0.37552 (Simulation time: 0 hr 4 min 21 sec) 
Heartbeat CPU  0 instructions:  178000003 cycles:  314241613 heartbeat IPC: 0.37596 cumulative IPC: 0.37553 (Simulation time: 0 hr 4 min 23 sec) 
Heartbeat CPU  0 instructions:  179000002 cycles:  316943193 heartbeat IPC: 0.37015 cumulative IPC: 0.37546 (Simulation time: 0 hr 4 min 25 sec) 
Heartbeat CPU  0 instructions:  180000000 cycles:  319564526 heartbeat IPC: 0.38148 cumulative IPC: 0.37553 (Simulation time: 0 hr 4 min 27 sec) 
Heartbeat CPU  0 instructions:  181000001 cycles:  322288130 heartbeat IPC: 0.36716 cumulative IPC: 0.37543 (Simulation time: 0 hr 4 min 29 sec) 
Heartbeat CPU  0 instructions:  182000000 cycles:  325155094 heartbeat IPC: 0.34880 cumulative IPC: 0.37508 (Simulation time: 0 hr 4 min 31 sec) 
Heartbeat CPU  0 instructions:  183000000 cycles:  327879042 heartbeat IPC: 0.36711 cumulative IPC: 0.37498 (Simulation time: 0 hr 4 min 33 sec) 
Heartbeat CPU  0 instructions:  184000000 cycles:  330581640 heartbeat IPC: 0.37001 cumulative IPC: 0.37492 (Simulation time: 0 hr 4 min 35 sec) 
Heartbeat CPU  0 instructions:  185000000 cycles:  333269873 heartbeat IPC: 0.37199 cumulative IPC: 0.37489 (Simulation time: 0 hr 4 min 36 sec) 
Heartbeat CPU  0 instructions:  186000003 cycles:  336004615 heartbeat IPC: 0.36567 cumulative IPC: 0.37478 (Simulation time: 0 hr 4 min 38 sec) 
Heartbeat CPU  0 instructions:  187000001 cycles:  338778646 heartbeat IPC: 0.36049 cumulative IPC: 0.37461 (Simulation time: 0 hr 4 min 40 sec) 
Heartbeat CPU  0 instructions:  188000000 cycles:  341512009 heartbeat IPC: 0.36585 cumulative IPC: 0.37450 (Simulation time: 0 hr 4 min 42 sec) 
Heartbeat CPU  0 instructions:  189000001 cycles:  344252522 heartbeat IPC: 0.36490 cumulative IPC: 0.37439 (Simulation time: 0 hr 4 min 44 sec) 
Heartbeat CPU  0 instructions:  190000000 cycles:  347057953 heartbeat IPC: 0.35645 cumulative IPC: 0.37418 (Simulation time: 0 hr 4 min 46 sec) 
Heartbeat CPU  0 instructions:  191000001 cycles:  349772161 heartbeat IPC: 0.36843 cumulative IPC: 0.37412 (Simulation time: 0 hr 4 min 48 sec) 
Heartbeat CPU  0 instructions:  192000000 cycles:  352549795 heartbeat IPC: 0.36002 cumulative IPC: 0.37396 (Simulation time: 0 hr 4 min 50 sec) 
Heartbeat CPU  0 instructions:  193000002 cycles:  355155418 heartbeat IPC: 0.38379 cumulative IPC: 0.37406 (Simulation time: 0 hr 4 min 51 sec) 
Heartbeat CPU  0 instructions:  194000001 cycles:  357096343 heartbeat IPC: 0.51522 cumulative IPC: 0.37516 (Simulation time: 0 hr 4 min 53 sec) 
Heartbeat CPU  0 instructions:  195000000 cycles:  359543654 heartbeat IPC: 0.40861 cumulative IPC: 0.37548 (Simulation time: 0 hr 4 min 55 sec) 
Heartbeat CPU  0 instructions:  196000000 cycles:  362456872 heartbeat IPC: 0.34326 cumulative IPC: 0.37511 (Simulation time: 0 hr 4 min 57 sec) 
Heartbeat CPU  0 instructions:  197000000 cycles:  365150282 heartbeat IPC: 0.37128 cumulative IPC: 0.37507 (Simulation time: 0 hr 4 min 59 sec) 
Heartbeat CPU  0 instructions:  198000000 cycles:  367880015 heartbeat IPC: 0.36634 cumulative IPC: 0.37498 (Simulation time: 0 hr 5 min 0 sec) 
Heartbeat CPU  0 instructions:  199000000 cycles:  370492867 heartbeat IPC: 0.38272 cumulative IPC: 0.37506 (Simulation time: 0 hr 5 min 2 sec) 
Heartbeat CPU  0 instructions:  200000000 cycles:  373029286 heartbeat IPC: 0.39426 cumulative IPC: 0.37524 (Simulation time: 0 hr 5 min 4 sec) 
Heartbeat CPU  0 instructions:  201000001 cycles:  375774612 heartbeat IPC: 0.36426 cumulative IPC: 0.37513 (Simulation time: 0 hr 5 min 6 sec) 
Heartbeat CPU  0 instructions:  202000002 cycles:  378454681 heartbeat IPC: 0.37313 cumulative IPC: 0.37511 (Simulation time: 0 hr 5 min 8 sec) 
Heartbeat CPU  0 instructions:  203000001 cycles:  381219312 heartbeat IPC: 0.36171 cumulative IPC: 0.37497 (Simulation time: 0 hr 5 min 10 sec) 
Heartbeat CPU  0 instructions:  204000000 cycles:  383998848 heartbeat IPC: 0.35977 cumulative IPC: 0.37482 (Simulation time: 0 hr 5 min 12 sec) 
Heartbeat CPU  0 instructions:  205000002 cycles:  386708113 heartbeat IPC: 0.36910 cumulative IPC: 0.37477 (Simulation time: 0 hr 5 min 13 sec) 
Heartbeat CPU  0 instructions:  206000002 cycles:  389435763 heartbeat IPC: 0.36662 cumulative IPC: 0.37469 (Simulation time: 0 hr 5 min 15 sec) 
Heartbeat CPU  0 instructions:  207000001 cycles:  392139302 heartbeat IPC: 0.36989 cumulative IPC: 0.37464 (Simulation time: 0 hr 5 min 17 sec) 
Heartbeat CPU  0 instructions:  208000000 cycles:  394910562 heartbeat IPC: 0.36085 cumulative IPC: 0.37451 (Simulation time: 0 hr 5 min 19 sec) 
Heartbeat CPU  0 instructions:  209000001 cycles:  397470754 heartbeat IPC: 0.39060 cumulative IPC: 0.37465 (Simulation time: 0 hr 5 min 21 sec) 
Heartbeat CPU  0 instructions:  210000000 cycles:  399696852 heartbeat IPC: 0.44922 cumulative IPC: 0.37522 (Simulation time: 0 hr 5 min 23 sec) 
Heartbeat CPU  0 instructions:  211000000 cycles:  401973924 heartbeat IPC: 0.43916 cumulative IPC: 0.37571 (Simulation time: 0 hr 5 min 24 sec) 
Heartbeat CPU  0 instructions:  212000000 cycles:  404768730 heartbeat IPC: 0.35781 cumulative IPC: 0.37554 (Simulation time: 0 hr 5 min 26 sec) 
Heartbeat CPU  0 instructions:  213000000 cycles:  407498707 heartbeat IPC: 0.36630 cumulative IPC: 0.37546 (Simulation time: 0 hr 5 min 28 sec) 
Heartbeat CPU  0 instructions:  214000000 cycles:  410333199 heartbeat IPC: 0.35280 cumulative IPC: 0.37525 (Simulation time: 0 hr 5 min 30 sec) 
Heartbeat CPU  0 instructions:  215000002 cycles:  413088515 heartbeat IPC: 0.36294 cumulative IPC: 0.37514 (Simulation time: 0 hr 5 min 32 sec) 
Heartbeat CPU  0 instructions:  216000000 cycles:  415821421 heartbeat IPC: 0.36591 cumulative IPC: 0.37506 (Simulation time: 0 hr 5 min 34 sec) 
Heartbeat CPU  0 instructions:  217000000 cycles:  418511608 heartbeat IPC: 0.37172 cumulative IPC: 0.37503 (Simulation time: 0 hr 5 min 36 sec) 
Heartbeat CPU  0 instructions:  218000003 cycles:  421258543 heartbeat IPC: 0.36404 cumulative IPC: 0.37493 (Simulation time: 0 hr 5 min 37 sec) 
Heartbeat CPU  0 instructions:  219000000 cycles:  424007259 heartbeat IPC: 0.36381 cumulative IPC: 0.37484 (Simulation time: 0 hr 5 min 39 sec) 
Heartbeat CPU  0 instructions:  220000000 cycles:  426701847 heartbeat IPC: 0.37111 cumulative IPC: 0.37480 (Simulation time: 0 hr 5 min 41 sec) 
Heartbeat CPU  0 instructions:  221000001 cycles:  429479835 heartbeat IPC: 0.35997 cumulative IPC: 0.37468 (Simulation time: 0 hr 5 min 43 sec) 
Heartbeat CPU  0 instructions:  222000001 cycles:  432254245 heartbeat IPC: 0.36044 cumulative IPC: 0.37455 (Simulation time: 0 hr 5 min 45 sec) 
Heartbeat CPU  0 instructions:  223000002 cycles:  435035487 heartbeat IPC: 0.35955 cumulative IPC: 0.37443 (Simulation time: 0 hr 5 min 47 sec) 
Heartbeat CPU  0 instructions:  224000000 cycles:  437821178 heartbeat IPC: 0.35898 cumulative IPC: 0.37430 (Simulation time: 0 hr 5 min 49 sec) 
Heartbeat CPU  0 instructions:  225000000 cycles:  440598666 heartbeat IPC: 0.36004 cumulative IPC: 0.37418 (Simulation time: 0 hr 5 min 51 sec) 
Heartbeat CPU  0 instructions:  226000001 cycles:  443412906 heartbeat IPC: 0.35534 cumulative IPC: 0.37402 (Simulation time: 0 hr 5 min 52 sec) 
Heartbeat CPU  0 instructions:  227000000 cycles:  446140049 heartbeat IPC: 0.36668 cumulative IPC: 0.37396 (Simulation time: 0 hr 5 min 54 sec) 
Heartbeat CPU  0 instructions:  228000000 cycles:  448880485 heartbeat IPC: 0.36491 cumulative IPC: 0.37389 (Simulation time: 0 hr 5 min 56 sec) 
Heartbeat CPU  0 instructions:  229000000 cycles:  451232499 heartbeat IPC: 0.42517 cumulative IPC: 0.37424 (Simulation time: 0 hr 5 min 58 sec) 
Heartbeat CPU  0 instructions:  230000000 cycles:  453294177 heartbeat IPC: 0.48504 cumulative IPC: 0.37490 (Simulation time: 0 hr 6 min 0 sec) 
Heartbeat CPU  0 instructions:  231000001 cycles:  456069790 heartbeat IPC: 0.36028 cumulative IPC: 0.37478 (Simulation time: 0 hr 6 min 1 sec) 
Heartbeat CPU  0 instructions:  232000000 cycles:  458578667 heartbeat IPC: 0.39858 cumulative IPC: 0.37495 (Simulation time: 0 hr 6 min 3 sec) 
Heartbeat CPU  0 instructions:  233000002 cycles:  461121830 heartbeat IPC: 0.39321 cumulative IPC: 0.37508 (Simulation time: 0 hr 6 min 5 sec) 
Heartbeat CPU  0 instructions:  234000002 cycles:  463820248 heartbeat IPC: 0.37059 cumulative IPC: 0.37505 (Simulation time: 0 hr 6 min 7 sec) 
Heartbeat CPU  0 instructions:  235000002 cycles:  466547532 heartbeat IPC: 0.36667 cumulative IPC: 0.37499 (Simulation time: 0 hr 6 min 9 sec) 
Heartbeat CPU  0 instructions:  236000000 cycles:  469189859 heartbeat IPC: 0.37845 cumulative IPC: 0.37501 (Simulation time: 0 hr 6 min 11 sec) 
Heartbeat CPU  0 instructions:  237000001 cycles:  471860745 heartbeat IPC: 0.37441 cumulative IPC: 0.37501 (Simulation time: 0 hr 6 min 13 sec) 
Heartbeat CPU  0 instructions:  238000002 cycles:  474647822 heartbeat IPC: 0.35880 cumulative IPC: 0.37488 (Simulation time: 0 hr 6 min 15 sec) 
Heartbeat CPU  0 instructions:  239000000 cycles:  477272774 heartbeat IPC: 0.38096 cumulative IPC: 0.37493 (Simulation time: 0 hr 6 min 16 sec) 
Heartbeat CPU  0 instructions:  240000000 cycles:  480050441 heartbeat IPC: 0.36001 cumulative IPC: 0.37482 (Simulation time: 0 hr 6 min 18 sec) 
Heartbeat CPU  0 instructions:  241000001 cycles:  482853978 heartbeat IPC: 0.35669 cumulative IPC: 0.37468 (Simulation time: 0 hr 6 min 20 sec) 
Heartbeat CPU  0 instructions:  242000000 cycles:  485555494 heartbeat IPC: 0.37016 cumulative IPC: 0.37465 (Simulation time: 0 hr 6 min 22 sec) 
Heartbeat CPU  0 instructions:  243000002 cycles:  488364786 heartbeat IPC: 0.35596 cumulative IPC: 0.37451 (Simulation time: 0 hr 6 min 24 sec) 
Heartbeat CPU  0 instructions:  244000000 cycles:  491112378 heartbeat IPC: 0.36395 cumulative IPC: 0.37444 (Simulation time: 0 hr 6 min 26 sec) 
Heartbeat CPU  0 instructions:  245000001 cycles:  493777695 heartbeat IPC: 0.37519 cumulative IPC: 0.37444 (Simulation time: 0 hr 6 min 28 sec) 
Heartbeat CPU  0 instructions:  246000000 cycles:  496270606 heartbeat IPC: 0.40114 cumulative IPC: 0.37461 (Simulation time: 0 hr 6 min 30 sec) 
Heartbeat CPU  0 instructions:  247000001 cycles:  499053450 heartbeat IPC: 0.35934 cumulative IPC: 0.37450 (Simulation time: 0 hr 6 min 32 sec) 
Heartbeat CPU  0 instructions:  248000000 cycles:  501597126 heartbeat IPC: 0.39313 cumulative IPC: 0.37462 (Simulation time: 0 hr 6 min 34 sec) 
Heartbeat CPU  0 instructions:  249000000 cycles:  504301677 heartbeat IPC: 0.36975 cumulative IPC: 0.37459 (Simulation time: 0 hr 6 min 36 sec) 
Heartbeat CPU  0 instructions:  250000000 cycles:  506997018 heartbeat IPC: 0.37101 cumulative IPC: 0.37457 (Simulation time: 0 hr 6 min 37 sec) 
Heartbeat CPU  0 instructions:  251000000 cycles:  509362826 heartbeat IPC: 0.42269 cumulative IPC: 0.37485 (Simulation time: 0 hr 6 min 39 sec) 
Heartbeat CPU  0 instructions:  252000000 cycles:  511660142 heartbeat IPC: 0.43529 cumulative IPC: 0.37519 (Simulation time: 0 hr 6 min 41 sec) 
Heartbeat CPU  0 instructions:  253000001 cycles:  514110957 heartbeat IPC: 0.40803 cumulative IPC: 0.37539 (Simulation time: 0 hr 6 min 43 sec) 
Heartbeat CPU  0 instructions:  254000000 cycles:  516739484 heartbeat IPC: 0.38044 cumulative IPC: 0.37542 (Simulation time: 0 hr 6 min 45 sec) 
Heartbeat CPU  0 instructions:  255000001 cycles:  519124634 heartbeat IPC: 0.41926 cumulative IPC: 0.37568 (Simulation time: 0 hr 6 min 46 sec) 
Heartbeat CPU  0 instructions:  256000000 cycles:  521933887 heartbeat IPC: 0.35597 cumulative IPC: 0.37554 (Simulation time: 0 hr 6 min 48 sec) 
Heartbeat CPU  0 instructions:  257000002 cycles:  524751180 heartbeat IPC: 0.35495 cumulative IPC: 0.37540 (Simulation time: 0 hr 6 min 50 sec) 
Heartbeat CPU  0 instructions:  258000001 cycles:  527496998 heartbeat IPC: 0.36419 cumulative IPC: 0.37533 (Simulation time: 0 hr 6 min 52 sec) 
Heartbeat CPU  0 instructions:  259000000 cycles:  530192198 heartbeat IPC: 0.37103 cumulative IPC: 0.37530 (Simulation time: 0 hr 6 min 54 sec) 
Heartbeat CPU  0 instructions:  260000000 cycles:  532894380 heartbeat IPC: 0.37007 cumulative IPC: 0.37527 (Simulation time: 0 hr 6 min 56 sec) 
Heartbeat CPU  0 instructions:  261000001 cycles:  535709442 heartbeat IPC: 0.35523 cumulative IPC: 0.37514 (Simulation time: 0 hr 6 min 58 sec) 
Heartbeat CPU  0 instructions:  262000003 cycles:  538373974 heartbeat IPC: 0.37530 cumulative IPC: 0.37514 (Simulation time: 0 hr 6 min 59 sec) 
Heartbeat CPU  0 instructions:  263000002 cycles:  541173610 heartbeat IPC: 0.35719 cumulative IPC: 0.37502 (Simulation time: 0 hr 7 min 1 sec) 
Heartbeat CPU  0 instructions:  264000000 cycles:  543809129 heartbeat IPC: 0.37943 cumulative IPC: 0.37505 (Simulation time: 0 hr 7 min 3 sec) 
Heartbeat CPU  0 instructions:  265000000 cycles:  546568754 heartbeat IPC: 0.36237 cumulative IPC: 0.37497 (Simulation time: 0 hr 7 min 5 sec) 
Heartbeat CPU  0 instructions:  266000001 cycles:  549395157 heartbeat IPC: 0.35381 cumulative IPC: 0.37484 (Simulation time: 0 hr 7 min 7 sec) 
Heartbeat CPU  0 instructions:  267000003 cycles:  552117229 heartbeat IPC: 0.36737 cumulative IPC: 0.37479 (Simulation time: 0 hr 7 min 9 sec) 
Heartbeat CPU  0 instructions:  268000000 cycles:  554894556 heartbeat IPC: 0.36006 cumulative IPC: 0.37470 (Simulation time: 0 hr 7 min 11 sec) 
Heartbeat CPU  0 instructions:  269000001 cycles:  557647765 heartbeat IPC: 0.36321 cumulative IPC: 0.37463 (Simulation time: 0 hr 7 min 13 sec) 
Heartbeat CPU  0 instructions:  270000000 cycles:  560527501 heartbeat IPC: 0.34725 cumulative IPC: 0.37445 (Simulation time: 0 hr 7 min 14 sec) 
Heartbeat CPU  0 instructions:  271000000 cycles:  563266915 heartbeat IPC: 0.36504 cumulative IPC: 0.37440 (Simulation time: 0 hr 7 min 16 sec) 
Heartbeat CPU  0 instructions:  272000000 cycles:  565998287 heartbeat IPC: 0.36612 cumulative IPC: 0.37435 (Simulation time: 0 hr 7 min 18 sec) 
Heartbeat CPU  0 instructions:  273000001 cycles:  568397635 heartbeat IPC: 0.41678 cumulative IPC: 0.37457 (Simulation time: 0 hr 7 min 20 sec) 
Heartbeat CPU  0 instructions:  274000000 cycles:  570652146 heartbeat IPC: 0.44355 cumulative IPC: 0.37490 (Simulation time: 0 hr 7 min 22 sec) 
Heartbeat CPU  0 instructions:  275000001 cycles:  573124869 heartbeat IPC: 0.40441 cumulative IPC: 0.37506 (Simulation time: 0 hr 7 min 23 sec) 
Heartbeat CPU  0 instructions:  276000000 cycles:  575771266 heartbeat IPC: 0.37787 cumulative IPC: 0.37508 (Simulation time: 0 hr 7 min 25 sec) 
Heartbeat CPU  0 instructions:  277000000 cycles:  578559101 heartbeat IPC: 0.35870 cumulative IPC: 0.37498 (Simulation time: 0 hr 7 min 27 sec) 
Heartbeat CPU  0 instructions:  278000001 cycles:  581416291 heartbeat IPC: 0.34999 cumulative IPC: 0.37483 (Simulation time: 0 hr 7 min 29 sec) 
Heartbeat CPU  0 instructions:  279000002 cycles:  584177815 heartbeat IPC: 0.36212 cumulative IPC: 0.37476 (Simulation time: 0 hr 7 min 31 sec) 
Heartbeat CPU  0 instructions:  280000000 cycles:  586875726 heartbeat IPC: 0.37066 cumulative IPC: 0.37473 (Simulation time: 0 hr 7 min 33 sec) 
Heartbeat CPU  0 instructions:  281000000 cycles:  589603995 heartbeat IPC: 0.36653 cumulative IPC: 0.37469 (Simulation time: 0 hr 7 min 35 sec) 
Heartbeat CPU  0 instructions:  282000003 cycles:  592399737 heartbeat IPC: 0.35769 cumulative IPC: 0.37459 (Simulation time: 0 hr 7 min 37 sec) 
Heartbeat CPU  0 instructions:  283000003 cycles:  595124578 heartbeat IPC: 0.36699 cumulative IPC: 0.37455 (Simulation time: 0 hr 7 min 38 sec) 
Heartbeat CPU  0 instructions:  284000000 cycles:  597759541 heartbeat IPC: 0.37951 cumulative IPC: 0.37457 (Simulation time: 0 hr 7 min 40 sec) 
Heartbeat CPU  0 instructions:  285000001 cycles:  600555953 heartbeat IPC: 0.35760 cumulative IPC: 0.37448 (Simulation time: 0 hr 7 min 42 sec) 
Heartbeat CPU  0 instructions:  286000003 cycles:  603247255 heartbeat IPC: 0.37157 cumulative IPC: 0.37446 (Simulation time: 0 hr 7 min 44 sec) 
Heartbeat CPU  0 instructions:  287000000 cycles:  605997407 heartbeat IPC: 0.36362 cumulative IPC: 0.37440 (Simulation time: 0 hr 7 min 46 sec) 
Heartbeat CPU  0 instructions:  288000000 cycles:  608790535 heartbeat IPC: 0.35802 cumulative IPC: 0.37431 (Simulation time: 0 hr 7 min 48 sec) 
Heartbeat CPU  0 instructions:  289000000 cycles:  611517270 heartbeat IPC: 0.36674 cumulative IPC: 0.37427 (Simulation time: 0 hr 7 min 50 sec) 
Heartbeat CPU  0 instructions:  290000000 cycles:  614333232 heartbeat IPC: 0.35512 cumulative IPC: 0.37416 (Simulation time: 0 hr 7 min 52 sec) 
Heartbeat CPU  0 instructions:  291000000 cycles:  617076506 heartbeat IPC: 0.36453 cumulative IPC: 0.37411 (Simulation time: 0 hr 7 min 53 sec) 
Heartbeat CPU  0 instructions:  292000000 cycles:  619781222 heartbeat IPC: 0.36972 cumulative IPC: 0.37409 (Simulation time: 0 hr 7 min 55 sec) 
Heartbeat CPU  0 instructions:  293000002 cycles:  622617840 heartbeat IPC: 0.35253 cumulative IPC: 0.37397 (Simulation time: 0 hr 7 min 57 sec) 
Heartbeat CPU  0 instructions:  294000003 cycles:  625323061 heartbeat IPC: 0.36966 cumulative IPC: 0.37395 (Simulation time: 0 hr 7 min 59 sec) 
Heartbeat CPU  0 instructions:  295000003 cycles:  628099520 heartbeat IPC: 0.36017 cumulative IPC: 0.37387 (Simulation time: 0 hr 8 min 1 sec) 
Heartbeat CPU  0 instructions:  296000000 cycles:  630733282 heartbeat IPC: 0.37968 cumulative IPC: 0.37390 (Simulation time: 0 hr 8 min 3 sec) 
Heartbeat CPU  0 instructions:  297000001 cycles:  632874102 heartbeat IPC: 0.46711 cumulative IPC: 0.37428 (Simulation time: 0 hr 8 min 4 sec) 
Heartbeat CPU  0 instructions:  298000000 cycles:  635285025 heartbeat IPC: 0.41478 cumulative IPC: 0.37447 (Simulation time: 0 hr 8 min 6 sec) 
Heartbeat CPU  0 instructions:  299000000 cycles:  637928520 heartbeat IPC: 0.37829 cumulative IPC: 0.37449 (Simulation time: 0 hr 8 min 8 sec) 
Heartbeat CPU  0 instructions:  300000000 cycles:  640444553 heartbeat IPC: 0.39745 cumulative IPC: 0.37459 (Simulation time: 0 hr 8 min 10 sec) 
Heartbeat CPU  0 instructions:  301000001 cycles:  642952002 heartbeat IPC: 0.39881 cumulative IPC: 0.37471 (Simulation time: 0 hr 8 min 12 sec) 
Heartbeat CPU  0 instructions:  302000000 cycles:  645549697 heartbeat IPC: 0.38496 cumulative IPC: 0.37476 (Simulation time: 0 hr 8 min 14 sec) 
Heartbeat CPU  0 instructions:  303000003 cycles:  648300569 heartbeat IPC: 0.36352 cumulative IPC: 0.37470 (Simulation time: 0 hr 8 min 16 sec) 
Heartbeat CPU  0 instructions:  304000000 cycles:  650980837 heartbeat IPC: 0.37310 cumulative IPC: 0.37469 (Simulation time: 0 hr 8 min 17 sec) 
Heartbeat CPU  0 instructions:  305000000 cycles:  653718875 heartbeat IPC: 0.36523 cumulative IPC: 0.37465 (Simulation time: 0 hr 8 min 19 sec) 
Heartbeat CPU  0 instructions:  306000002 cycles:  656567788 heartbeat IPC: 0.35101 cumulative IPC: 0.37452 (Simulation time: 0 hr 8 min 21 sec) 
Heartbeat CPU  0 instructions:  307000000 cycles:  659315538 heartbeat IPC: 0.36393 cumulative IPC: 0.37447 (Simulation time: 0 hr 8 min 23 sec) 
Heartbeat CPU  0 instructions:  308000000 cycles:  662016229 heartbeat IPC: 0.37028 cumulative IPC: 0.37445 (Simulation time: 0 hr 8 min 25 sec) 
Heartbeat CPU  0 instructions:  309000000 cycles:  664731667 heartbeat IPC: 0.36826 cumulative IPC: 0.37442 (Simulation time: 0 hr 8 min 27 sec) 
Heartbeat CPU  0 instructions:  310000000 cycles:  667491991 heartbeat IPC: 0.36228 cumulative IPC: 0.37436 (Simulation time: 0 hr 8 min 29 sec) 
Heartbeat CPU  0 instructions:  311000003 cycles:  670227087 heartbeat IPC: 0.36562 cumulative IPC: 0.37432 (Simulation time: 0 hr 8 min 31 sec) 
Heartbeat CPU  0 instructions:  312000000 cycles:  672865386 heartbeat IPC: 0.37903 cumulative IPC: 0.37434 (Simulation time: 0 hr 8 min 32 sec) 
Heartbeat CPU  0 instructions:  313000000 cycles:  675630075 heartbeat IPC: 0.36170 cumulative IPC: 0.37428 (Simulation time: 0 hr 8 min 34 sec) 
Heartbeat CPU  0 instructions:  314000002 cycles:  678347393 heartbeat IPC: 0.36801 cumulative IPC: 0.37425 (Simulation time: 0 hr 8 min 36 sec) 
Heartbeat CPU  0 instructions:  315000002 cycles:  681044812 heartbeat IPC: 0.37072 cumulative IPC: 0.37423 (Simulation time: 0 hr 8 min 38 sec) 
Heartbeat CPU  0 instructions:  316000000 cycles:  683815102 heartbeat IPC: 0.36097 cumulative IPC: 0.37417 (Simulation time: 0 hr 8 min 40 sec) 
Heartbeat CPU  0 instructions:  317000001 cycles:  686581379 heartbeat IPC: 0.36150 cumulative IPC: 0.37411 (Simulation time: 0 hr 8 min 42 sec) 
Heartbeat CPU  0 instructions:  318000000 cycles:  689356258 heartbeat IPC: 0.36038 cumulative IPC: 0.37404 (Simulation time: 0 hr 8 min 44 sec) 
Heartbeat CPU  0 instructions:  319000000 cycles:  692116620 heartbeat IPC: 0.36227 cumulative IPC: 0.37399 (Simulation time: 0 hr 8 min 46 sec) 
Heartbeat CPU  0 instructions:  320000000 cycles:  694815613 heartbeat IPC: 0.37051 cumulative IPC: 0.37397 (Simulation time: 0 hr 8 min 47 sec) 
Heartbeat CPU  0 instructions:  321000003 cycles:  697373032 heartbeat IPC: 0.39102 cumulative IPC: 0.37404 (Simulation time: 0 hr 8 min 49 sec) 
Heartbeat CPU  0 instructions:  322000002 cycles:  699873936 heartbeat IPC: 0.39986 cumulative IPC: 0.37415 (Simulation time: 0 hr 8 min 51 sec) 
Heartbeat CPU  0 instructions:  323000000 cycles:  701998950 heartbeat IPC: 0.47058 cumulative IPC: 0.37450 (Simulation time: 0 hr 8 min 53 sec) 
Heartbeat CPU  0 instructions:  324000000 cycles:  704409523 heartbeat IPC: 0.41484 cumulative IPC: 0.37466 (Simulation time: 0 hr 8 min 55 sec) 
Heartbeat CPU  0 instructions:  325000000 cycles:  707049260 heartbeat IPC: 0.37883 cumulative IPC: 0.37468 (Simulation time: 0 hr 8 min 56 sec) 
Heartbeat CPU  0 instructions:  326000000 cycles:  709688942 heartbeat IPC: 0.37883 cumulative IPC: 0.37470 (Simulation time: 0 hr 8 min 58 sec) 
Heartbeat CPU  0 instructions:  327000002 cycles:  712396135 heartbeat IPC: 0.36939 cumulative IPC: 0.37467 (Simulation time: 0 hr 9 min 0 sec) 
Heartbeat CPU  0 instructions:  328000000 cycles:  715043006 heartbeat IPC: 0.37780 cumulative IPC: 0.37469 (Simulation time: 0 hr 9 min 2 sec) 
Heartbeat CPU  0 instructions:  329000001 cycles:  717764388 heartbeat IPC: 0.36746 cumulative IPC: 0.37465 (Simulation time: 0 hr 9 min 4 sec) 
Heartbeat CPU  0 instructions:  330000000 cycles:  720592879 heartbeat IPC: 0.35355 cumulative IPC: 0.37456 (Simulation time: 0 hr 9 min 6 sec) 
Heartbeat CPU  0 instructions:  331000000 cycles:  723424540 heartbeat IPC: 0.35315 cumulative IPC: 0.37446 (Simulation time: 0 hr 9 min 8 sec) 
Heartbeat CPU  0 instructions:  332000000 cycles:  726100444 heartbeat IPC: 0.37371 cumulative IPC: 0.37446 (Simulation time: 0 hr 9 min 10 sec) 
Heartbeat CPU  0 instructions:  333000000 cycles:  728778337 heartbeat IPC: 0.37343 cumulative IPC: 0.37445 (Simulation time: 0 hr 9 min 11 sec) 
Heartbeat CPU  0 instructions:  334000001 cycles:  731539547 heartbeat IPC: 0.36216 cumulative IPC: 0.37440 (Simulation time: 0 hr 9 min 13 sec) 
Heartbeat CPU  0 instructions:  335000003 cycles:  734295356 heartbeat IPC: 0.36287 cumulative IPC: 0.37435 (Simulation time: 0 hr 9 min 15 sec) 
Heartbeat CPU  0 instructions:  336000000 cycles:  736966846 heartbeat IPC: 0.37432 cumulative IPC: 0.37435 (Simulation time: 0 hr 9 min 17 sec) 
Heartbeat CPU  0 instructions:  337000000 cycles:  739689266 heartbeat IPC: 0.36732 cumulative IPC: 0.37432 (Simulation time: 0 hr 9 min 19 sec) 
Heartbeat CPU  0 instructions:  338000000 cycles:  742451051 heartbeat IPC: 0.36208 cumulative IPC: 0.37426 (Simulation time: 0 hr 9 min 21 sec) 
Heartbeat CPU  0 instructions:  339000000 cycles:  745114371 heartbeat IPC: 0.37547 cumulative IPC: 0.37427 (Simulation time: 0 hr 9 min 23 sec) 
Heartbeat CPU  0 instructions:  340000000 cycles:  747870863 heartbeat IPC: 0.36278 cumulative IPC: 0.37422 (Simulation time: 0 hr 9 min 25 sec) 
Heartbeat CPU  0 instructions:  341000002 cycles:  750692597 heartbeat IPC: 0.35439 cumulative IPC: 0.37413 (Simulation time: 0 hr 9 min 26 sec) 
Heartbeat CPU  0 instructions:  342000000 cycles:  753411010 heartbeat IPC: 0.36786 cumulative IPC: 0.37411 (Simulation time: 0 hr 9 min 28 sec) 
Heartbeat CPU  0 instructions:  343000000 cycles:  756202313 heartbeat IPC: 0.35826 cumulative IPC: 0.37404 (Simulation time: 0 hr 9 min 30 sec) 
Heartbeat CPU  0 instructions:  344000000 cycles:  758931621 heartbeat IPC: 0.36639 cumulative IPC: 0.37401 (Simulation time: 0 hr 9 min 32 sec) 
Heartbeat CPU  0 instructions:  345000000 cycles:  761494015 heartbeat IPC: 0.39026 cumulative IPC: 0.37407 (Simulation time: 0 hr 9 min 34 sec) 
Heartbeat CPU  0 instructions:  346000001 cycles:  764100438 heartbeat IPC: 0.38367 cumulative IPC: 0.37411 (Simulation time: 0 hr 9 min 36 sec) 
Heartbeat CPU  0 instructions:  347000000 cycles:  766170649 heartbeat IPC: 0.48304 cumulative IPC: 0.37445 (Simulation time: 0 hr 9 min 37 sec) 
Heartbeat CPU  0 instructions:  348000000 cycles:  768443796 heartbeat IPC: 0.43992 cumulative IPC: 0.37467 (Simulation time: 0 hr 9 min 39 sec) 
Heartbeat CPU  0 instructions:  349000003 cycles:  771142955 heartbeat IPC: 0.37049 cumulative IPC: 0.37466 (Simulation time: 0 hr 9 min 41 sec) 
Heartbeat CPU  0 instructions:  350000002 cycles:  773834547 heartbeat IPC: 0.37153 cumulative IPC: 0.37464 (Simulation time: 0 hr 9 min 43 sec) 
Heartbeat CPU  0 instructions:  351000001 cycles:  776476437 heartbeat IPC: 0.37852 cumulative IPC: 0.37466 (Simulation time: 0 hr 9 min 45 sec) 
Heartbeat CPU  0 instructions:  352000000 cycles:  779210440 heartbeat IPC: 0.36576 cumulative IPC: 0.37462 (Simulation time: 0 hr 9 min 47 sec) 
Heartbeat CPU  0 instructions:  353000000 cycles:  782043663 heartbeat IPC: 0.35295 cumulative IPC: 0.37453 (Simulation time: 0 hr 9 min 48 sec) 
Heartbeat CPU  0 instructions:  354000001 cycles:  784797051 heartbeat IPC: 0.36319 cumulative IPC: 0.37449 (Simulation time: 0 hr 9 min 50 sec) 
Heartbeat CPU  0 instructions:  355000002 cycles:  787524180 heartbeat IPC: 0.36669 cumulative IPC: 0.37445 (Simulation time: 0 hr 9 min 52 sec) 
Heartbeat CPU  0 instructions:  356000000 cycles:  790180239 heartbeat IPC: 0.37650 cumulative IPC: 0.37446 (Simulation time: 0 hr 9 min 54 sec) 
Heartbeat CPU  0 instructions:  357000000 cycles:  792935822 heartbeat IPC: 0.36290 cumulative IPC: 0.37442 (Simulation time: 0 hr 9 min 56 sec) 
Heartbeat CPU  0 instructions:  358000000 cycles:  795600916 heartbeat IPC: 0.37522 cumulative IPC: 0.37442 (Simulation time: 0 hr 9 min 58 sec) 
Heartbeat CPU  0 instructions:  359000001 cycles:  798299358 heartbeat IPC: 0.37058 cumulative IPC: 0.37440 (Simulation time: 0 hr 10 min 0 sec) 
Heartbeat CPU  0 instructions:  360000000 cycles:  801063903 heartbeat IPC: 0.36172 cumulative IPC: 0.37435 (Simulation time: 0 hr 10 min 2 sec) 
Heartbeat CPU  0 instructions:  361000002 cycles:  803733977 heartbeat IPC: 0.37452 cumulative IPC: 0.37435 (Simulation time: 0 hr 10 min 4 sec) 
Heartbeat CPU  0 instructions:  362000000 cycles:  806525012 heartbeat IPC: 0.35829 cumulative IPC: 0.37429 (Simulation time: 0 hr 10 min 5 sec) 
Heartbeat CPU  0 instructions:  363000000 cycles:  809295845 heartbeat IPC: 0.36090 cumulative IPC: 0.37424 (Simulation time: 0 hr 10 min 7 sec) 
Heartbeat CPU  0 instructions:  364000000 cycles:  812047165 heartbeat IPC: 0.36346 cumulative IPC: 0.37420 (Simulation time: 0 hr 10 min 9 sec) 
Heartbeat CPU  0 instructions:  365000001 cycles:  814806613 heartbeat IPC: 0.36239 cumulative IPC: 0.37415 (Simulation time: 0 hr 10 min 11 sec) 
Heartbeat CPU  0 instructions:  366000000 cycles:  817554857 heartbeat IPC: 0.36387 cumulative IPC: 0.37411 (Simulation time: 0 hr 10 min 13 sec) 
Heartbeat CPU  0 instructions:  367000000 cycles:  820125955 heartbeat IPC: 0.38894 cumulative IPC: 0.37416 (Simulation time: 0 hr 10 min 15 sec) 
Heartbeat CPU  0 instructions:  368000000 cycles:  822719056 heartbeat IPC: 0.38564 cumulative IPC: 0.37421 (Simulation time: 0 hr 10 min 17 sec) 
Heartbeat CPU  0 instructions:  369000000 cycles:  824801169 heartbeat IPC: 0.48028 cumulative IPC: 0.37451 (Simulation time: 0 hr 10 min 18 sec) 
Heartbeat CPU  0 instructions:  370000000 cycles:  827033540 heartbeat IPC: 0.44795 cumulative IPC: 0.37474 (Simulation time: 0 hr 10 min 20 sec) 
Heartbeat CPU  0 instructions:  371000000 cycles:  829689318 heartbeat IPC: 0.37654 cumulative IPC: 0.37475 (Simulation time: 0 hr 10 min 22 sec) 
Heartbeat CPU  0 instructions:  372000000 cycles:  832560955 heartbeat IPC: 0.34823 cumulative IPC: 0.37464 (Simulation time: 0 hr 10 min 24 sec) 
Heartbeat CPU  0 instructions:  373000000 cycles:  835293595 heartbeat IPC: 0.36595 cumulative IPC: 0.37461 (Simulation time: 0 hr 10 min 26 sec) 
Heartbeat CPU  0 instructions:  374000003 cycles:  837985437 heartbeat IPC: 0.37149 cumulative IPC: 0.37460 (Simulation time: 0 hr 10 min 28 sec) 
Heartbeat CPU  0 instructions:  375000000 cycles:  840644185 heartbeat IPC: 0.37612 cumulative IPC: 0.37460 (Simulation time: 0 hr 10 min 29 sec) 
Heartbeat CPU  0 instructions:  376000000 cycles:  843417856 heartbeat IPC: 0.36053 cumulative IPC: 0.37455 (Simulation time: 0 hr 10 min 31 sec) 
Heartbeat CPU  0 instructions:  377000003 cycles:  846097516 heartbeat IPC: 0.37318 cumulative IPC: 0.37455 (Simulation time: 0 hr 10 min 33 sec) 
Heartbeat CPU  0 instructions:  378000000 cycles:  848797233 heartbeat IPC: 0.37041 cumulative IPC: 0.37453 (Simulation time: 0 hr 10 min 35 sec) 
Heartbeat CPU  0 instructions:  379000002 cycles:  851583535 heartbeat IPC: 0.35890 cumulative IPC: 0.37447 (Simulation time: 0 hr 10 min 37 sec) 
Heartbeat CPU  0 instructions:  380000000 cycles:  854273112 heartbeat IPC: 0.37180 cumulative IPC: 0.37446 (Simulation time: 0 hr 10 min 39 sec) 
Heartbeat CPU  0 instructions:  381000000 cycles:  857082033 heartbeat IPC: 0.35601 cumulative IPC: 0.37439 (Simulation time: 0 hr 10 min 41 sec) 
Heartbeat CPU  0 instructions:  382000001 cycles:  859816174 heartbeat IPC: 0.36575 cumulative IPC: 0.37436 (Simulation time: 0 hr 10 min 43 sec) 
Heartbeat CPU  0 instructions:  383000002 cycles:  862488021 heartbeat IPC: 0.37427 cumulative IPC: 0.37436 (Simulation time: 0 hr 10 min 44 sec) 
Heartbeat CPU  0 instructions:  384000000 cycles:  864590082 heartbeat IPC: 0.47572 cumulative IPC: 0.37464 (Simulation time: 0 hr 10 min 46 sec) 
Heartbeat CPU  0 instructions:  385000000 cycles:  866701840 heartbeat IPC: 0.47354 cumulative IPC: 0.37492 (Simulation time: 0 hr 10 min 48 sec) 
Heartbeat CPU  0 instructions:  386000002 cycles:  869440248 heartbeat IPC: 0.36518 cumulative IPC: 0.37488 (Simulation time: 0 hr 10 min 50 sec) 
Heartbeat CPU  0 instructions:  387000001 cycles:  872076880 heartbeat IPC: 0.37927 cumulative IPC: 0.37490 (Simulation time: 0 hr 10 min 51 sec) 
Heartbeat CPU  0 instructions:  388000000 cycles:  874824523 heartbeat IPC: 0.36395 cumulative IPC: 0.37486 (Simulation time: 0 hr 10 min 53 sec) 
Heartbeat CPU  0 instructions:  389000000 cycles:  877530631 heartbeat IPC: 0.36953 cumulative IPC: 0.37484 (Simulation time: 0 hr 10 min 55 sec) 
Heartbeat CPU  0 instructions:  390000000 cycles:  880223062 heartbeat IPC: 0.37141 cumulative IPC: 0.37483 (Simulation time: 0 hr 10 min 57 sec) 
Heartbeat CPU  0 instructions:  391000001 cycles:  882935965 heartbeat IPC: 0.36861 cumulative IPC: 0.37481 (Simulation time: 0 hr 10 min 59 sec) 
Heartbeat CPU  0 instructions:  392000000 cycles:  885679187 heartbeat IPC: 0.36453 cumulative IPC: 0.37477 (Simulation time: 0 hr 11 min 1 sec) 
Heartbeat CPU  0 instructions:  393000000 cycles:  888408980 heartbeat IPC: 0.36633 cumulative IPC: 0.37474 (Simulation time: 0 hr 11 min 3 sec) 
Heartbeat CPU  0 instructions:  394000002 cycles:  891030258 heartbeat IPC: 0.38149 cumulative IPC: 0.37476 (Simulation time: 0 hr 11 min 5 sec) 
Heartbeat CPU  0 instructions:  395000002 cycles:  893822393 heartbeat IPC: 0.35815 cumulative IPC: 0.37470 (Simulation time: 0 hr 11 min 6 sec) 
Heartbeat CPU  0 instructions:  396000000 cycles:  896489522 heartbeat IPC: 0.37493 cumulative IPC: 0.37470 (Simulation time: 0 hr 11 min 8 sec) 
Heartbeat CPU  0 instructions:  397000000 cycles:  899225023 heartbeat IPC: 0.36556 cumulative IPC: 0.37467 (Simulation time: 0 hr 11 min 10 sec) 
Heartbeat CPU  0 instructions:  398000001 cycles:  902003343 heartbeat IPC: 0.35993 cumulative IPC: 0.37462 (Simulation time: 0 hr 11 min 12 sec) 
Heartbeat CPU  0 instructions:  399000002 cycles:  904768671 heartbeat IPC: 0.36162 cumulative IPC: 0.37458 (Simulation time: 0 hr 11 min 14 sec) 
Heartbeat CPU  0 instructions:  400000000 cycles:  907569849 heartbeat IPC: 0.35699 cumulative IPC: 0.37452 (Simulation time: 0 hr 11 min 16 sec) 
Heartbeat CPU  0 instructions:  401000000 cycles:  910313496 heartbeat IPC: 0.36448 cumulative IPC: 0.37448 (Simulation time: 0 hr 11 min 18 sec) 
Heartbeat CPU  0 instructions:  402000000 cycles:  913032385 heartbeat IPC: 0.36780 cumulative IPC: 0.37446 (Simulation time: 0 hr 11 min 19 sec) 
Heartbeat CPU  0 instructions:  403000001 cycles:  915571959 heartbeat IPC: 0.39377 cumulative IPC: 0.37452 (Simulation time: 0 hr 11 min 21 sec) 
Heartbeat CPU  0 instructions:  404000000 cycles:  918097400 heartbeat IPC: 0.39597 cumulative IPC: 0.37459 (Simulation time: 0 hr 11 min 23 sec) 
Heartbeat CPU  0 instructions:  405000000 cycles:  920240779 heartbeat IPC: 0.46655 cumulative IPC: 0.37483 (Simulation time: 0 hr 11 min 25 sec) 
Heartbeat CPU  0 instructions:  406000002 cycles:  922615510 heartbeat IPC: 0.42110 cumulative IPC: 0.37496 (Simulation time: 0 hr 11 min 27 sec) 
Heartbeat CPU  0 instructions:  407000000 cycles:  925247152 heartbeat IPC: 0.37999 cumulative IPC: 0.37498 (Simulation time: 0 hr 11 min 28 sec) 
Heartbeat CPU  0 instructions:  408000000 cycles:  927998900 heartbeat IPC: 0.36341 cumulative IPC: 0.37494 (Simulation time: 0 hr 11 min 30 sec) 
Heartbeat CPU  0 instructions:  409000002 cycles:  930883962 heartbeat IPC: 0.34661 cumulative IPC: 0.37484 (Simulation time: 0 hr 11 min 32 sec) 
Heartbeat CPU  0 instructions:  410000001 cycles:  933622038 heartbeat IPC: 0.36522 cumulative IPC: 0.37481 (Simulation time: 0 hr 11 min 34 sec) 
Heartbeat CPU  0 instructions:  411000000 cycles:  936340583 heartbeat IPC: 0.36784 cumulative IPC: 0.37479 (Simulation time: 0 hr 11 min 36 sec) 
Heartbeat CPU  0 instructions:  412000000 cycles:  938979990 heartbeat IPC: 0.37887 cumulative IPC: 0.37480 (Simulation time: 0 hr 11 min 38 sec) 
Heartbeat CPU  0 instructions:  413000000 cycles:  941757183 heartbeat IPC: 0.36008 cumulative IPC: 0.37475 (Simulation time: 0 hr 11 min 40 sec) 
Heartbeat CPU  0 instructions:  414000000 cycles:  944419387 heartbeat IPC: 0.37563 cumulative IPC: 0.37475 (Simulation time: 0 hr 11 min 42 sec) 
Heartbeat CPU  0 instructions:  415000000 cycles:  947135731 heartbeat IPC: 0.36814 cumulative IPC: 0.37473 (Simulation time: 0 hr 11 min 44 sec) 
Heartbeat CPU  0 instructions:  416000000 cycles:  949904231 heartbeat IPC: 0.36121 cumulative IPC: 0.37469 (Simulation time: 0 hr 11 min 45 sec) 
Heartbeat CPU  0 instructions:  417000003 cycles:  952553207 heartbeat IPC: 0.37751 cumulative IPC: 0.37470 (Simulation time: 0 hr 11 min 47 sec) 
Heartbeat CPU  0 instructions:  418000000 cycles:  955340425 heartbeat IPC: 0.35878 cumulative IPC: 0.37464 (Simulation time: 0 hr 11 min 49 sec) 
Heartbeat CPU  0 instructions:  419000000 cycles:  958145980 heartbeat IPC: 0.35644 cumulative IPC: 0.37458 (Simulation time: 0 hr 11 min 51 sec) 
Heartbeat CPU  0 instructions:  420000000 cycles:  960875909 heartbeat IPC: 0.36631 cumulative IPC: 0.37456 (Simulation time: 0 hr 11 min 53 sec) 
Heartbeat CPU  0 instructions:  421000000 cycles:  963671603 heartbeat IPC: 0.35769 cumulative IPC: 0.37450 (Simulation time: 0 hr 11 min 55 sec) 
Heartbeat CPU  0 instructions:  422000001 cycles:  966381422 heartbeat IPC: 0.36903 cumulative IPC: 0.37449 (Simulation time: 0 hr 11 min 57 sec) 
Heartbeat CPU  0 instructions:  423000000 cycles:  968879216 heartbeat IPC: 0.40035 cumulative IPC: 0.37456 (Simulation time: 0 hr 11 min 58 sec) 
Heartbeat CPU  0 instructions:  424000000 cycles:  970851439 heartbeat IPC: 0.50704 cumulative IPC: 0.37486 (Simulation time: 0 hr 12 min 0 sec) 
Heartbeat CPU  0 instructions:  425000001 cycles:  973277143 heartbeat IPC: 0.41225 cumulative IPC: 0.37497 (Simulation time: 0 hr 12 min 2 sec) 
Heartbeat CPU  0 instructions:  426000001 cycles:  975937695 heartbeat IPC: 0.37586 cumulative IPC: 0.37497 (Simulation time: 0 hr 12 min 4 sec) 
Heartbeat CPU  0 instructions:  427000000 cycles:  978662942 heartbeat IPC: 0.36694 cumulative IPC: 0.37494 (Simulation time: 0 hr 12 min 6 sec) 
Heartbeat CPU  0 instructions:  428000000 cycles:  981514535 heartbeat IPC: 0.35068 cumulative IPC: 0.37487 (Simulation time: 0 hr 12 min 7 sec) 
Heartbeat CPU  0 instructions:  429000001 cycles:  984313184 heartbeat IPC: 0.35732 cumulative IPC: 0.37481 (Simulation time: 0 hr 12 min 9 sec) 
Heartbeat CPU  0 instructions:  430000001 cycles:  987020515 heartbeat IPC: 0.36937 cumulative IPC: 0.37479 (Simulation time: 0 hr 12 min 11 sec) 
Heartbeat CPU  0 instructions:  431000000 cycles:  989712183 heartbeat IPC: 0.37152 cumulative IPC: 0.37478 (Simulation time: 0 hr 12 min 13 sec) 
Heartbeat CPU  0 instructions:  432000000 cycles:  992446027 heartbeat IPC: 0.36579 cumulative IPC: 0.37476 (Simulation time: 0 hr 12 min 15 sec) 
Heartbeat CPU  0 instructions:  433000001 cycles:  995219840 heartbeat IPC: 0.36051 cumulative IPC: 0.37471 (Simulation time: 0 hr 12 min 17 sec) 
Heartbeat CPU  0 instructions:  434000001 cycles:  997881773 heartbeat IPC: 0.37567 cumulative IPC: 0.37471 (Simulation time: 0 hr 12 min 19 sec) 
Heartbeat CPU  0 instructions:  435000000 cycles: 1000602327 heartbeat IPC: 0.36757 cumulative IPC: 0.37469 (Simulation time: 0 hr 12 min 21 sec) 
Heartbeat CPU  0 instructions:  436000000 cycles: 1003368607 heartbeat IPC: 0.36150 cumulative IPC: 0.37465 (Simulation time: 0 hr 12 min 22 sec) 
Heartbeat CPU  0 instructions:  437000000 cycles: 1006035093 heartbeat IPC: 0.37503 cumulative IPC: 0.37465 (Simulation time: 0 hr 12 min 24 sec) 
Heartbeat CPU  0 instructions:  438000000 cycles: 1008824946 heartbeat IPC: 0.35844 cumulative IPC: 0.37460 (Simulation time: 0 hr 12 min 26 sec) 
Heartbeat CPU  0 instructions:  439000003 cycles: 1011602279 heartbeat IPC: 0.36006 cumulative IPC: 0.37456 (Simulation time: 0 hr 12 min 28 sec) 
Heartbeat CPU  0 instructions:  440000000 cycles: 1014350065 heartbeat IPC: 0.36393 cumulative IPC: 0.37453 (Simulation time: 0 hr 12 min 30 sec) 
Heartbeat CPU  0 instructions:  441000001 cycles: 1017105326 heartbeat IPC: 0.36294 cumulative IPC: 0.37449 (Simulation time: 0 hr 12 min 32 sec) 
Heartbeat CPU  0 instructions:  442000000 cycles: 1019825424 heartbeat IPC: 0.36763 cumulative IPC: 0.37447 (Simulation time: 0 hr 12 min 34 sec) 
Heartbeat CPU  0 instructions:  443000002 cycles: 1022398194 heartbeat IPC: 0.38869 cumulative IPC: 0.37451 (Simulation time: 0 hr 12 min 36 sec) 
Heartbeat CPU  0 instructions:  444000000 cycles: 1025043267 heartbeat IPC: 0.37806 cumulative IPC: 0.37452 (Simulation time: 0 hr 12 min 38 sec) 
Heartbeat CPU  0 instructions:  445000000 cycles: 1027844172 heartbeat IPC: 0.35703 cumulative IPC: 0.37447 (Simulation time: 0 hr 12 min 39 sec) 
Heartbeat CPU  0 instructions:  446000003 cycles: 1030599952 heartbeat IPC: 0.36287 cumulative IPC: 0.37443 (Simulation time: 0 hr 12 min 41 sec) 
Heartbeat CPU  0 instructions:  447000002 cycles: 1033350972 heartbeat IPC: 0.36350 cumulative IPC: 0.37440 (Simulation time: 0 hr 12 min 43 sec) 
Heartbeat CPU  0 instructions:  448000000 cycles: 1035768543 heartbeat IPC: 0.41364 cumulative IPC: 0.37450 (Simulation time: 0 hr 12 min 45 sec) 
Heartbeat CPU  0 instructions:  449000000 cycles: 1037879488 heartbeat IPC: 0.47372 cumulative IPC: 0.37473 (Simulation time: 0 hr 12 min 47 sec) 
Heartbeat CPU  0 instructions:  450000000 cycles: 1040547165 heartbeat IPC: 0.37486 cumulative IPC: 0.37473 (Simulation time: 0 hr 12 min 48 sec) 
Heartbeat CPU  0 instructions:  451000000 cycles: 1043271414 heartbeat IPC: 0.36707 cumulative IPC: 0.37470 (Simulation time: 0 hr 12 min 50 sec) 
Heartbeat CPU  0 instructions:  452000000 cycles: 1045976010 heartbeat IPC: 0.36974 cumulative IPC: 0.37469 (Simulation time: 0 hr 12 min 52 sec) 
Heartbeat CPU  0 instructions:  453000000 cycles: 1048644818 heartbeat IPC: 0.37470 cumulative IPC: 0.37469 (Simulation time: 0 hr 12 min 54 sec) 
Heartbeat CPU  0 instructions:  454000001 cycles: 1051374577 heartbeat IPC: 0.36633 cumulative IPC: 0.37467 (Simulation time: 0 hr 12 min 56 sec) 
Heartbeat CPU  0 instructions:  455000000 cycles: 1054109324 heartbeat IPC: 0.36566 cumulative IPC: 0.37464 (Simulation time: 0 hr 12 min 58 sec) 
Heartbeat CPU  0 instructions:  456000000 cycles: 1056774087 heartbeat IPC: 0.37527 cumulative IPC: 0.37464 (Simulation time: 0 hr 13 min 0 sec) 
Heartbeat CPU  0 instructions:  457000003 cycles: 1059529557 heartbeat IPC: 0.36292 cumulative IPC: 0.37461 (Simulation time: 0 hr 13 min 1 sec) 
Heartbeat CPU  0 instructions:  458000003 cycles: 1062244651 heartbeat IPC: 0.36831 cumulative IPC: 0.37459 (Simulation time: 0 hr 13 min 3 sec) 
Heartbeat CPU  0 instructions:  459000001 cycles: 1065047082 heartbeat IPC: 0.35683 cumulative IPC: 0.37454 (Simulation time: 0 hr 13 min 5 sec) 
Heartbeat CPU  0 instructions:  460000000 cycles: 1067778978 heartbeat IPC: 0.36605 cumulative IPC: 0.37451 (Simulation time: 0 hr 13 min 7 sec) 
Heartbeat CPU  0 instructions:  461000002 cycles: 1070481685 heartbeat IPC: 0.37000 cumulative IPC: 0.37450 (Simulation time: 0 hr 13 min 9 sec) 
Heartbeat CPU  0 instructions:  462000003 cycles: 1073097964 heartbeat IPC: 0.38222 cumulative IPC: 0.37452 (Simulation time: 0 hr 13 min 11 sec) 
Heartbeat CPU  0 instructions:  463000001 cycles: 1075084625 heartbeat IPC: 0.50336 cumulative IPC: 0.37479 (Simulation time: 0 hr 13 min 12 sec) 
Heartbeat CPU  0 instructions:  464000000 cycles: 1077995458 heartbeat IPC: 0.34354 cumulative IPC: 0.37469 (Simulation time: 0 hr 13 min 14 sec) 
Heartbeat CPU  0 instructions:  465000001 cycles: 1080817525 heartbeat IPC: 0.35435 cumulative IPC: 0.37463 (Simulation time: 0 hr 13 min 16 sec) 
Heartbeat CPU  0 instructions:  466000000 cycles: 1083268691 heartbeat IPC: 0.40797 cumulative IPC: 0.37472 (Simulation time: 0 hr 13 min 18 sec) 
Heartbeat CPU  0 instructions:  467000000 cycles: 1085908408 heartbeat IPC: 0.37883 cumulative IPC: 0.37473 (Simulation time: 0 hr 13 min 19 sec) 
Heartbeat CPU  0 instructions:  468000000 cycles: 1088627365 heartbeat IPC: 0.36779 cumulative IPC: 0.37471 (Simulation time: 0 hr 13 min 21 sec) 
Heartbeat CPU  0 instructions:  469000001 cycles: 1091328680 heartbeat IPC: 0.37019 cumulative IPC: 0.37470 (Simulation time: 0 hr 13 min 23 sec) 
Heartbeat CPU  0 instructions:  470000001 cycles: 1094037828 heartbeat IPC: 0.36912 cumulative IPC: 0.37468 (Simulation time: 0 hr 13 min 25 sec) 
Heartbeat CPU  0 instructions:  471000000 cycles: 1096664165 heartbeat IPC: 0.38076 cumulative IPC: 0.37470 (Simulation time: 0 hr 13 min 27 sec) 
Heartbeat CPU  0 instructions:  472000000 cycles: 1099439105 heartbeat IPC: 0.36037 cumulative IPC: 0.37466 (Simulation time: 0 hr 13 min 29 sec) 
Heartbeat CPU  0 instructions:  473000002 cycles: 1102113009 heartbeat IPC: 0.37399 cumulative IPC: 0.37466 (Simulation time: 0 hr 13 min 31 sec) 
Heartbeat CPU  0 instructions:  474000001 cycles: 1104833160 heartbeat IPC: 0.36763 cumulative IPC: 0.37464 (Simulation time: 0 hr 13 min 33 sec) 
Heartbeat CPU  0 instructions:  475000002 cycles: 1107601252 heartbeat IPC: 0.36126 cumulative IPC: 0.37460 (Simulation time: 0 hr 13 min 34 sec) 
Heartbeat CPU  0 instructions:  476000000 cycles: 1110314774 heartbeat IPC: 0.36852 cumulative IPC: 0.37458 (Simulation time: 0 hr 13 min 36 sec) 
Heartbeat CPU  0 instructions:  477000001 cycles: 1113100907 heartbeat IPC: 0.35892 cumulative IPC: 0.37454 (Simulation time: 0 hr 13 min 38 sec) 
Heartbeat CPU  0 instructions:  478000001 cycles: 1115813714 heartbeat IPC: 0.36862 cumulative IPC: 0.37452 (Simulation time: 0 hr 13 min 40 sec) 
Heartbeat CPU  0 instructions:  479000002 cycles: 1118500097 heartbeat IPC: 0.37225 cumulative IPC: 0.37452 (Simulation time: 0 hr 13 min 42 sec) 
Heartbeat CPU  0 instructions:  480000000 cycles: 1121291259 heartbeat IPC: 0.35827 cumulative IPC: 0.37447 (Simulation time: 0 hr 13 min 44 sec) 
Heartbeat CPU  0 instructions:  481000000 cycles: 1124101449 heartbeat IPC: 0.35585 cumulative IPC: 0.37442 (Simulation time: 0 hr 13 min 46 sec) 
Heartbeat CPU  0 instructions:  482000000 cycles: 1126056029 heartbeat IPC: 0.51162 cumulative IPC: 0.37469 (Simulation time: 0 hr 13 min 47 sec) 
Heartbeat CPU  0 instructions:  483000003 cycles: 1128871333 heartbeat IPC: 0.35520 cumulative IPC: 0.37463 (Simulation time: 0 hr 13 min 49 sec) 
Heartbeat CPU  0 instructions:  484000000 cycles: 1131641484 heartbeat IPC: 0.36099 cumulative IPC: 0.37459 (Simulation time: 0 hr 13 min 51 sec) 
Heartbeat CPU  0 instructions:  485000001 cycles: 1134486102 heartbeat IPC: 0.35154 cumulative IPC: 0.37453 (Simulation time: 0 hr 13 min 53 sec) 
Heartbeat CPU  0 instructions:  486000000 cycles: 1137204008 heartbeat IPC: 0.36793 cumulative IPC: 0.37451 (Simulation time: 0 hr 13 min 55 sec) 
Heartbeat CPU  0 instructions:  487000002 cycles: 1139593920 heartbeat IPC: 0.41843 cumulative IPC: 0.37462 (Simulation time: 0 hr 13 min 56 sec) 
Heartbeat CPU  0 instructions:  488000000 cycles: 1142419343 heartbeat IPC: 0.35393 cumulative IPC: 0.37456 (Simulation time: 0 hr 13 min 58 sec) 
Heartbeat CPU  0 instructions:  489000001 cycles: 1145229403 heartbeat IPC: 0.35586 cumulative IPC: 0.37451 (Simulation time: 0 hr 14 min 0 sec) 
Heartbeat CPU  0 instructions:  490000001 cycles: 1147877767 heartbeat IPC: 0.37759 cumulative IPC: 0.37452 (Simulation time: 0 hr 14 min 2 sec) 
Heartbeat CPU  0 instructions:  491000001 cycles: 1150582419 heartbeat IPC: 0.36973 cumulative IPC: 0.37450 (Simulation time: 0 hr 14 min 4 sec) 
Heartbeat CPU  0 instructions:  492000000 cycles: 1153267631 heartbeat IPC: 0.37241 cumulative IPC: 0.37450 (Simulation time: 0 hr 14 min 6 sec) 
Heartbeat CPU  0 instructions:  493000000 cycles: 1156043830 heartbeat IPC: 0.36020 cumulative IPC: 0.37446 (Simulation time: 0 hr 14 min 8 sec) 
Heartbeat CPU  0 instructions:  494000000 cycles: 1158758886 heartbeat IPC: 0.36832 cumulative IPC: 0.37444 (Simulation time: 0 hr 14 min 10 sec) 
Heartbeat CPU  0 instructions:  495000000 cycles: 1161574460 heartbeat IPC: 0.35517 cumulative IPC: 0.37439 (Simulation time: 0 hr 14 min 11 sec) 
Heartbeat CPU  0 instructions:  496000000 cycles: 1164293605 heartbeat IPC: 0.36776 cumulative IPC: 0.37438 (Simulation time: 0 hr 14 min 13 sec) 
Heartbeat CPU  0 instructions:  497000000 cycles: 1166989705 heartbeat IPC: 0.37091 cumulative IPC: 0.37437 (Simulation time: 0 hr 14 min 15 sec) 
Heartbeat CPU  0 instructions:  498000001 cycles: 1169239808 heartbeat IPC: 0.44442 cumulative IPC: 0.37452 (Simulation time: 0 hr 14 min 17 sec) 
Heartbeat CPU  0 instructions:  499000001 cycles: 1171615790 heartbeat IPC: 0.42088 cumulative IPC: 0.37462 (Simulation time: 0 hr 14 min 18 sec) 
Heartbeat CPU  0 instructions:  500000000 cycles: 1174013688 heartbeat IPC: 0.41703 cumulative IPC: 0.37471 (Simulation time: 0 hr 14 min 20 sec) 
Heartbeat CPU  0 instructions:  501000001 cycles: 1176707311 heartbeat IPC: 0.37125 cumulative IPC: 0.37471 (Simulation time: 0 hr 14 min 22 sec) 
Heartbeat CPU  0 instructions:  502000003 cycles: 1179516723 heartbeat IPC: 0.35595 cumulative IPC: 0.37466 (Simulation time: 0 hr 14 min 24 sec) 
Heartbeat CPU  0 instructions:  503000000 cycles: 1181445223 heartbeat IPC: 0.51854 cumulative IPC: 0.37491 (Simulation time: 0 hr 14 min 26 sec) 
Heartbeat CPU  0 instructions:  504000000 cycles: 1182549138 heartbeat IPC: 0.90587 cumulative IPC: 0.37546 (Simulation time: 0 hr 14 min 28 sec) 
Heartbeat CPU  0 instructions:  505000003 cycles: 1184826102 heartbeat IPC: 0.43918 cumulative IPC: 0.37559 (Simulation time: 0 hr 14 min 31 sec) 
Heartbeat CPU  0 instructions:  506000003 cycles: 1187202683 heartbeat IPC: 0.42077 cumulative IPC: 0.37569 (Simulation time: 0 hr 14 min 34 sec) 
Heartbeat CPU  0 instructions:  507000003 cycles: 1189784686 heartbeat IPC: 0.38730 cumulative IPC: 0.37572 (Simulation time: 0 hr 14 min 37 sec) 
Heartbeat CPU  0 instructions:  508000000 cycles: 1194089139 heartbeat IPC: 0.23232 cumulative IPC: 0.37515 (Simulation time: 0 hr 14 min 42 sec) 
Heartbeat CPU  0 instructions:  509000003 cycles: 1199362255 heartbeat IPC: 0.18964 cumulative IPC: 0.37426 (Simulation time: 0 hr 14 min 46 sec) 
Heartbeat CPU  0 instructions:  510000003 cycles: 1204921784 heartbeat IPC: 0.17987 cumulative IPC: 0.37327 (Simulation time: 0 hr 14 min 51 sec) 
Heartbeat CPU  0 instructions:  511000001 cycles: 1211241125 heartbeat IPC: 0.15824 cumulative IPC: 0.37204 (Simulation time: 0 hr 14 min 56 sec) 
Heartbeat CPU  0 instructions:  512000000 cycles: 1219372682 heartbeat IPC: 0.12298 cumulative IPC: 0.37022 (Simulation time: 0 hr 15 min 3 sec) 
Heartbeat CPU  0 instructions:  513000003 cycles: 1227663650 heartbeat IPC: 0.12061 cumulative IPC: 0.36838 (Simulation time: 0 hr 15 min 9 sec) 
Heartbeat CPU  0 instructions:  514000002 cycles: 1231905764 heartbeat IPC: 0.23573 cumulative IPC: 0.36788 (Simulation time: 0 hr 15 min 13 sec) 
Heartbeat CPU  0 instructions:  515000002 cycles: 1234689384 heartbeat IPC: 0.35924 cumulative IPC: 0.36786 (Simulation time: 0 hr 15 min 16 sec) 
Heartbeat CPU  0 instructions:  516000000 cycles: 1237440221 heartbeat IPC: 0.36353 cumulative IPC: 0.36785 (Simulation time: 0 hr 15 min 19 sec) 
Heartbeat CPU  0 instructions:  517000002 cycles: 1240231413 heartbeat IPC: 0.35827 cumulative IPC: 0.36782 (Simulation time: 0 hr 15 min 23 sec) 
Heartbeat CPU  0 instructions:  518000002 cycles: 1245642773 heartbeat IPC: 0.18480 cumulative IPC: 0.36695 (Simulation time: 0 hr 15 min 27 sec) 
Heartbeat CPU  0 instructions:  519000002 cycles: 1251301147 heartbeat IPC: 0.17673 cumulative IPC: 0.36601 (Simulation time: 0 hr 15 min 32 sec) 
Heartbeat CPU  0 instructions:  520000000 cycles: 1256806036 heartbeat IPC: 0.18166 cumulative IPC: 0.36513 (Simulation time: 0 hr 15 min 37 sec) 
Heartbeat CPU  0 instructions:  521000000 cycles: 1264127805 heartbeat IPC: 0.13658 cumulative IPC: 0.36369 (Simulation time: 0 hr 15 min 43 sec) 
Heartbeat CPU  0 instructions:  522000002 cycles: 1272511293 heartbeat IPC: 0.11928 cumulative IPC: 0.36193 (Simulation time: 0 hr 15 min 49 sec) 
Heartbeat CPU  0 instructions:  523000000 cycles: 1279681925 heartbeat IPC: 0.13946 cumulative IPC: 0.36057 (Simulation time: 0 hr 15 min 55 sec) 
Heartbeat CPU  0 instructions:  524000000 cycles: 1282261729 heartbeat IPC: 0.38763 cumulative IPC: 0.36063 (Simulation time: 0 hr 15 min 57 sec) 
Heartbeat CPU  0 instructions:  525000002 cycles: 1284859954 heartbeat IPC: 0.38488 cumulative IPC: 0.36068 (Simulation time: 0 hr 15 min 59 sec) 
Heartbeat CPU  0 instructions:  526000000 cycles: 1287190051 heartbeat IPC: 0.42917 cumulative IPC: 0.36082 (Simulation time: 0 hr 16 min 1 sec) 
Heartbeat CPU  0 instructions:  527000001 cycles: 1289987997 heartbeat IPC: 0.35741 cumulative IPC: 0.36081 (Simulation time: 0 hr 16 min 2 sec) 
Heartbeat CPU  0 instructions:  528000000 cycles: 1292266189 heartbeat IPC: 0.43894 cumulative IPC: 0.36096 (Simulation time: 0 hr 16 min 4 sec) 
Heartbeat CPU  0 instructions:  529000000 cycles: 1294233734 heartbeat IPC: 0.50825 cumulative IPC: 0.36120 (Simulation time: 0 hr 16 min 6 sec) 
Heartbeat CPU  0 instructions:  530000003 cycles: 1297066650 heartbeat IPC: 0.35299 cumulative IPC: 0.36118 (Simulation time: 0 hr 16 min 8 sec) 
Heartbeat CPU  0 instructions:  531000001 cycles: 1299497134 heartbeat IPC: 0.41144 cumulative IPC: 0.36129 (Simulation time: 0 hr 16 min 10 sec) 
Heartbeat CPU  0 instructions:  532000000 cycles: 1301971770 heartbeat IPC: 0.40410 cumulative IPC: 0.36137 (Simulation time: 0 hr 16 min 11 sec) 
Heartbeat CPU  0 instructions:  533000002 cycles: 1304738508 heartbeat IPC: 0.36144 cumulative IPC: 0.36137 (Simulation time: 0 hr 16 min 13 sec) 
Heartbeat CPU  0 instructions:  534000000 cycles: 1307112959 heartbeat IPC: 0.42115 cumulative IPC: 0.36149 (Simulation time: 0 hr 16 min 15 sec) 
Heartbeat CPU  0 instructions:  535000000 cycles: 1309217641 heartbeat IPC: 0.47513 cumulative IPC: 0.36169 (Simulation time: 0 hr 16 min 17 sec) 
Heartbeat CPU  0 instructions:  536000000 cycles: 1311811708 heartbeat IPC: 0.38550 cumulative IPC: 0.36174 (Simulation time: 0 hr 16 min 19 sec) 
Heartbeat CPU  0 instructions:  537000001 cycles: 1314201119 heartbeat IPC: 0.41851 cumulative IPC: 0.36185 (Simulation time: 0 hr 16 min 20 sec) 
Heartbeat CPU  0 instructions:  538000001 cycles: 1316745649 heartbeat IPC: 0.39300 cumulative IPC: 0.36192 (Simulation time: 0 hr 16 min 22 sec) 
Heartbeat CPU  0 instructions:  539000000 cycles: 1319268398 heartbeat IPC: 0.39639 cumulative IPC: 0.36199 (Simulation time: 0 hr 16 min 24 sec) 
Heartbeat CPU  0 instructions:  540000000 cycles: 1321938321 heartbeat IPC: 0.37454 cumulative IPC: 0.36202 (Simulation time: 0 hr 16 min 26 sec) 
Heartbeat CPU  0 instructions:  541000001 cycles: 1324441221 heartbeat IPC: 0.39954 cumulative IPC: 0.36210 (Simulation time: 0 hr 16 min 28 sec) 
Heartbeat CPU  0 instructions:  542000002 cycles: 1326799141 heartbeat IPC: 0.42410 cumulative IPC: 0.36222 (Simulation time: 0 hr 16 min 30 sec) 
Heartbeat CPU  0 instructions:  543000003 cycles: 1329401439 heartbeat IPC: 0.38428 cumulative IPC: 0.36226 (Simulation time: 0 hr 16 min 32 sec) 
Heartbeat CPU  0 instructions:  544000000 cycles: 1331968244 heartbeat IPC: 0.38959 cumulative IPC: 0.36232 (Simulation time: 0 hr 16 min 34 sec) 
Heartbeat CPU  0 instructions:  545000000 cycles: 1334182198 heartbeat IPC: 0.45168 cumulative IPC: 0.36248 (Simulation time: 0 hr 16 min 35 sec) 
Heartbeat CPU  0 instructions:  546000000 cycles: 1336508742 heartbeat IPC: 0.42982 cumulative IPC: 0.36261 (Simulation time: 0 hr 16 min 37 sec) 
Heartbeat CPU  0 instructions:  547000000 cycles: 1338969271 heartbeat IPC: 0.40642 cumulative IPC: 0.36270 (Simulation time: 0 hr 16 min 39 sec) 
Heartbeat CPU  0 instructions:  548000000 cycles: 1341643659 heartbeat IPC: 0.37392 cumulative IPC: 0.36272 (Simulation time: 0 hr 16 min 41 sec) 
Heartbeat CPU  0 instructions:  549000000 cycles: 1344245710 heartbeat IPC: 0.38431 cumulative IPC: 0.36277 (Simulation time: 0 hr 16 min 43 sec) 
Heartbeat CPU  0 instructions:  550000001 cycles: 1346864256 heartbeat IPC: 0.38189 cumulative IPC: 0.36281 (Simulation time: 0 hr 16 min 44 sec) 
Heartbeat CPU  0 instructions:  551000001 cycles: 1349525018 heartbeat IPC: 0.37583 cumulative IPC: 0.36283 (Simulation time: 0 hr 16 min 46 sec) 
Heartbeat CPU  0 instructions:  552000000 cycles: 1352180717 heartbeat IPC: 0.37655 cumulative IPC: 0.36286 (Simulation time: 0 hr 16 min 48 sec) 
Heartbeat CPU  0 instructions:  553000002 cycles: 1354762041 heartbeat IPC: 0.38740 cumulative IPC: 0.36291 (Simulation time: 0 hr 16 min 50 sec) 
Heartbeat CPU  0 instructions:  554000000 cycles: 1357438410 heartbeat IPC: 0.37364 cumulative IPC: 0.36294 (Simulation time: 0 hr 16 min 52 sec) 
Heartbeat CPU  0 instructions:  555000000 cycles: 1360207023 heartbeat IPC: 0.36119 cumulative IPC: 0.36293 (Simulation time: 0 hr 16 min 54 sec) 
Heartbeat CPU  0 instructions:  556000000 cycles: 1362737638 heartbeat IPC: 0.39516 cumulative IPC: 0.36300 (Simulation time: 0 hr 16 min 56 sec) 
Heartbeat CPU  0 instructions:  557000000 cycles: 1365486025 heartbeat IPC: 0.36385 cumulative IPC: 0.36300 (Simulation time: 0 hr 16 min 58 sec) 
Heartbeat CPU  0 instructions:  558000000 cycles: 1368138364 heartbeat IPC: 0.37703 cumulative IPC: 0.36303 (Simulation time: 0 hr 16 min 59 sec) 
Heartbeat CPU  0 instructions:  559000000 cycles: 1370889066 heartbeat IPC: 0.36354 cumulative IPC: 0.36303 (Simulation time: 0 hr 17 min 1 sec) 
Heartbeat CPU  0 instructions:  560000000 cycles: 1373621852 heartbeat IPC: 0.36593 cumulative IPC: 0.36304 (Simulation time: 0 hr 17 min 3 sec) 
Heartbeat CPU  0 instructions:  561000001 cycles: 1376287007 heartbeat IPC: 0.37521 cumulative IPC: 0.36306 (Simulation time: 0 hr 17 min 5 sec) 
Heartbeat CPU  0 instructions:  562000000 cycles: 1378975709 heartbeat IPC: 0.37193 cumulative IPC: 0.36308 (Simulation time: 0 hr 17 min 7 sec) 
Heartbeat CPU  0 instructions:  563000001 cycles: 1381769743 heartbeat IPC: 0.35791 cumulative IPC: 0.36307 (Simulation time: 0 hr 17 min 9 sec) 
Heartbeat CPU  0 instructions:  564000000 cycles: 1384283170 heartbeat IPC: 0.39786 cumulative IPC: 0.36314 (Simulation time: 0 hr 17 min 11 sec) 
Heartbeat CPU  0 instructions:  565000002 cycles: 1387005359 heartbeat IPC: 0.36735 cumulative IPC: 0.36315 (Simulation time: 0 hr 17 min 13 sec) 
Heartbeat CPU  0 instructions:  566000000 cycles: 1389635918 heartbeat IPC: 0.38015 cumulative IPC: 0.36318 (Simulation time: 0 hr 17 min 15 sec) 
Heartbeat CPU  0 instructions:  567000003 cycles: 1392309397 heartbeat IPC: 0.37405 cumulative IPC: 0.36321 (Simulation time: 0 hr 17 min 16 sec) 
Heartbeat CPU  0 instructions:  568000000 cycles: 1394996672 heartbeat IPC: 0.37212 cumulative IPC: 0.36322 (Simulation time: 0 hr 17 min 18 sec) 
Heartbeat CPU  0 instructions:  569000002 cycles: 1397818425 heartbeat IPC: 0.35439 cumulative IPC: 0.36320 (Simulation time: 0 hr 17 min 20 sec) 
Heartbeat CPU  0 instructions:  570000001 cycles: 1400566629 heartbeat IPC: 0.36387 cumulative IPC: 0.36321 (Simulation time: 0 hr 17 min 22 sec) 
Heartbeat CPU  0 instructions:  571000001 cycles: 1403305574 heartbeat IPC: 0.36510 cumulative IPC: 0.36321 (Simulation time: 0 hr 17 min 24 sec) 
Heartbeat CPU  0 instructions:  572000000 cycles: 1406117540 heartbeat IPC: 0.35562 cumulative IPC: 0.36319 (Simulation time: 0 hr 17 min 26 sec) 
Heartbeat CPU  0 instructions:  573000000 cycles: 1408877375 heartbeat IPC: 0.36234 cumulative IPC: 0.36319 (Simulation time: 0 hr 17 min 28 sec) 
Heartbeat CPU  0 instructions:  574000000 cycles: 1411670434 heartbeat IPC: 0.35803 cumulative IPC: 0.36318 (Simulation time: 0 hr 17 min 30 sec) 
Heartbeat CPU  0 instructions:  575000002 cycles: 1414461009 heartbeat IPC: 0.35835 cumulative IPC: 0.36317 (Simulation time: 0 hr 17 min 32 sec) 
Heartbeat CPU  0 instructions:  576000000 cycles: 1417176742 heartbeat IPC: 0.36822 cumulative IPC: 0.36318 (Simulation time: 0 hr 17 min 34 sec) 
Heartbeat CPU  0 instructions:  577000002 cycles: 1419921516 heartbeat IPC: 0.36433 cumulative IPC: 0.36318 (Simulation time: 0 hr 17 min 35 sec) 
Heartbeat CPU  0 instructions:  578000001 cycles: 1422521434 heartbeat IPC: 0.38463 cumulative IPC: 0.36323 (Simulation time: 0 hr 17 min 37 sec) 
Heartbeat CPU  0 instructions:  579000002 cycles: 1425224152 heartbeat IPC: 0.37000 cumulative IPC: 0.36324 (Simulation time: 0 hr 17 min 39 sec) 
Heartbeat CPU  0 instructions:  580000000 cycles: 1427928999 heartbeat IPC: 0.36971 cumulative IPC: 0.36325 (Simulation time: 0 hr 17 min 41 sec) 
Heartbeat CPU  0 instructions:  581000003 cycles: 1430615272 heartbeat IPC: 0.37226 cumulative IPC: 0.36327 (Simulation time: 0 hr 17 min 43 sec) 
Heartbeat CPU  0 instructions:  582000001 cycles: 1433396686 heartbeat IPC: 0.35953 cumulative IPC: 0.36326 (Simulation time: 0 hr 17 min 45 sec) 
Heartbeat CPU  0 instructions:  583000000 cycles: 1436066333 heartbeat IPC: 0.37458 cumulative IPC: 0.36329 (Simulation time: 0 hr 17 min 47 sec) 
Heartbeat CPU  0 instructions:  584000000 cycles: 1438701483 heartbeat IPC: 0.37949 cumulative IPC: 0.36332 (Simulation time: 0 hr 17 min 49 sec) 
Heartbeat CPU  0 instructions:  585000002 cycles: 1441439783 heartbeat IPC: 0.36519 cumulative IPC: 0.36332 (Simulation time: 0 hr 17 min 51 sec) 
Heartbeat CPU  0 instructions:  586000000 cycles: 1444155839 heartbeat IPC: 0.36818 cumulative IPC: 0.36333 (Simulation time: 0 hr 17 min 53 sec) 
Heartbeat CPU  0 instructions:  587000000 cycles: 1446705903 heartbeat IPC: 0.39215 cumulative IPC: 0.36339 (Simulation time: 0 hr 17 min 54 sec) 
Heartbeat CPU  0 instructions:  588000000 cycles: 1449368031 heartbeat IPC: 0.37564 cumulative IPC: 0.36341 (Simulation time: 0 hr 17 min 56 sec) 
Heartbeat CPU  0 instructions:  589000002 cycles: 1451933715 heartbeat IPC: 0.38976 cumulative IPC: 0.36346 (Simulation time: 0 hr 17 min 58 sec) 
Heartbeat CPU  0 instructions:  590000000 cycles: 1454553766 heartbeat IPC: 0.38167 cumulative IPC: 0.36350 (Simulation time: 0 hr 18 min 0 sec) 
Heartbeat CPU  0 instructions:  591000000 cycles: 1457042168 heartbeat IPC: 0.40186 cumulative IPC: 0.36357 (Simulation time: 0 hr 18 min 2 sec) 
Heartbeat CPU  0 instructions:  592000000 cycles: 1459763503 heartbeat IPC: 0.36747 cumulative IPC: 0.36357 (Simulation time: 0 hr 18 min 4 sec) 
Heartbeat CPU  0 instructions:  593000001 cycles: 1462456553 heartbeat IPC: 0.37133 cumulative IPC: 0.36359 (Simulation time: 0 hr 18 min 6 sec) 
Heartbeat CPU  0 instructions:  594000000 cycles: 1465047660 heartbeat IPC: 0.38594 cumulative IPC: 0.36363 (Simulation time: 0 hr 18 min 7 sec) 
Heartbeat CPU  0 instructions:  595000002 cycles: 1467789627 heartbeat IPC: 0.36470 cumulative IPC: 0.36363 (Simulation time: 0 hr 18 min 9 sec) 
Heartbeat CPU  0 instructions:  596000000 cycles: 1470158575 heartbeat IPC: 0.42213 cumulative IPC: 0.36374 (Simulation time: 0 hr 18 min 11 sec) 
Heartbeat CPU  0 instructions:  597000000 cycles: 1472589982 heartbeat IPC: 0.41128 cumulative IPC: 0.36382 (Simulation time: 0 hr 18 min 13 sec) 
Heartbeat CPU  0 instructions:  598000000 cycles: 1475080188 heartbeat IPC: 0.40157 cumulative IPC: 0.36389 (Simulation time: 0 hr 18 min 15 sec) 
Heartbeat CPU  0 instructions:  599000001 cycles: 1477767392 heartbeat IPC: 0.37213 cumulative IPC: 0.36391 (Simulation time: 0 hr 18 min 16 sec) 
Heartbeat CPU  0 instructions:  600000000 cycles: 1480374243 heartbeat IPC: 0.38360 cumulative IPC: 0.36394 (Simulation time: 0 hr 18 min 18 sec) 
Finished CPU 0 instructions: 500000000 cycles: 1373840001 cumulative IPC: 0.36394 (Simulation time: 0 hr 18 min 18 sec) 

ChampSim completed all CPUs

[ROI Statistics]
Core_0_instructions 500000000
Core_0_cycles 1373840001
Core_0_IPC 0.36394

Core_0_branch_prediction_accuracy 85.44512
Core_0_branch_MPKI 23.17008
Core_0_average_ROB_occupancy_at_mispredict 40.38991

Core_0_L1D_total_access 158098288
Core_0_L1D_total_hit 156030853
Core_0_L1D_total_miss 2067435
Core_0_L1D_loads 90770260
Core_0_L1D_load_hit 90057630
Core_0_L1D_load_miss 712630
Core_0_L1D_RFOs 67328028
Core_0_L1D_RFO_hit 65973223
Core_0_L1D_RFO_miss 1354805
Core_0_L1D_prefetches 0
Core_0_L1D_prefetch_hit 0
Core_0_L1D_prefetch_miss 0
Core_0_L1D_writebacks 0
Core_0_L1D_writeback_hit 0
Core_0_L1D_writeback_miss 0
Core_0_L1D_prefetch_requested 0
Core_0_L1D_prefetch_dropped 0
Core_0_L1D_prefetch_issued 0
Core_0_L1D_prefetch_filled 0
Core_0_L1D_prefetch_useful 0
Core_0_L1D_prefetch_useless 0
Core_0_L1D_prefetch_late 0
Core_0_L1D_average_miss_latency 786.75330

Core_0_L1D_rq_access 127065678
Core_0_L1D_rq_forward 0
Core_0_L1D_rq_merged 36159200
Core_0_L1D_rq_to_cache 90905853
Core_0_L1D_rq_full 0

Core_0_L1D_wq_access 71549319
Core_0_L1D_wq_forward 625
Core_0_L1D_wq_merged 408814
Core_0_L1D_wq_to_cache 71140505
Core_0_L1D_wq_full 89125496

Core_0_L1D_pq_access 0
Core_0_L1D_pq_forward 0
Core_0_L1D_pq_merged 0
Core_0_L1D_pq_to_cache 0
Core_0_L1D_pq_full 0

Core_0_L1D_acc_epochs 1440103
Core_0_L1D_acc_level_0 1440103
Core_0_L1D_acc_level_1 0
Core_0_L1D_acc_level_2 0
Core_0_L1D_acc_level_3 0
Core_0_L1D_acc_level_4 0
Core_0_L1D_acc_level_5 0
Core_0_L1D_acc_level_6 0
Core_0_L1D_acc_level_7 0
Core_0_L1D_acc_level_8 0
Core_0_L1D_acc_level_9 0

Core_0_L1I_total_access 98065290
Core_0_L1I_total_hit 96445735
Core_0_L1I_total_miss 1619555
Core_0_L1I_loads 98065290
Core_0_L1I_load_hit 96445735
Core_0_L1I_load_miss 1619555
Core_0_L1I_RFOs 0
Core_0_L1I_RFO_hit 0
Core_0_L1I_RFO_miss 0
Core_0_L1I_prefetches 0
Core_0_L1I_prefetch_hit 0
Core_0_L1I_prefetch_miss 0
Core_0_L1I_writebacks 0
Core_0_L1I_writeback_hit 0
Core_0_L1I_writeback_miss 0
Core_0_L1I_prefetch_requested 0
Core_0_L1I_prefetch_dropped 0
Core_0_L1I_prefetch_issued 0
Core_0_L1I_prefetch_filled 0
Core_0_L1I_prefetch_useful 0
Core_0_L1I_prefetch_useless 0
Core_0_L1I_prefetch_late 0
Core_0_L1I_average_miss_latency 12.83450

Core_0_L1I_rq_access 499999979
Core_0_L1I_rq_forward 0
Core_0_L1I_rq_merged 401353682
Core_0_L1I_rq_to_cache 98646297
Core_0_L1I_rq_full 0

Core_0_L1I_wq_access 0
Core_0_L1I_wq_forward 0
Core_0_L1I_wq_merged 0
Core_0_L1I_wq_to_cache 0
Core_0_L1I_wq_full 0

Core_0_L1I_pq_access 0
Core_0_L1I_pq_forward 0
Core_0_L1I_pq_merged 0
Core_0_L1I_pq_to_cache 0
Core_0_L1I_pq_full 0

Core_0_L1I_acc_epochs 1440103
Core_0_L1I_acc_level_0 1440103
Core_0_L1I_acc_level_1 0
Core_0_L1I_acc_level_2 0
Core_0_L1I_acc_level_3 0
Core_0_L1I_acc_level_4 0
Core_0_L1I_acc_level_5 0
Core_0_L1I_acc_level_6 0
Core_0_L1I_acc_level_7 0
Core_0_L1I_acc_level_8 0
Core_0_L1I_acc_level_9 0

Core_0_L2C_total_access 5282230
Core_0_L2C_total_hit 4109150
Core_0_L2C_total_miss 1173080
Core_0_L2C_loads 2332179
Core_0_L2C_load_hit 1975616
Core_0_L2C_load_miss 356563
Core_0_L2C_RFOs 1354778
Core_0_L2C_RFO_hit 540362
Core_0_L2C_RFO_miss 814416
Core_0_L2C_prefetches 0
Core_0_L2C_prefetch_hit 0
Core_0_L2C_prefetch_miss 0
Core_0_L2C_writebacks 1595273
Core_0_L2C_writeback_hit 1593172
Core_0_L2C_writeback_miss 2101
Core_0_L2C_prefetch_requested 0
Core_0_L2C_prefetch_dropped 0
Core_0_L2C_prefetch_issued 0
Core_0_L2C_prefetch_filled 0
Core_0_L2C_prefetch_useful 0
Core_0_L2C_prefetch_useless 0
Core_0_L2C_prefetch_late 0
Core_0_L2C_average_miss_latency 1363.78637

Core_0_L2C_rq_access 3686990
Core_0_L2C_rq_forward 0
Core_0_L2C_rq_merged 0
Core_0_L2C_rq_to_cache 3686957
Core_0_L2C_rq_full 0

Core_0_L2C_wq_access 1595273
Core_0_L2C_wq_forward 33
Core_0_L2C_wq_merged 0
Core_0_L2C_wq_to_cache 1595273
Core_0_L2C_wq_full 0

Core_0_L2C_pq_access 0
Core_0_L2C_pq_forward 0
Core_0_L2C_pq_merged 0
Core_0_L2C_pq_to_cache 0
Core_0_L2C_pq_full 0

Core_0_L2C_acc_epochs 1440103
Core_0_L2C_acc_level_0 1440103
Core_0_L2C_acc_level_1 0
Core_0_L2C_acc_level_2 0
Core_0_L2C_acc_level_3 0
Core_0_L2C_acc_level_4 0
Core_0_L2C_acc_level_5 0
Core_0_L2C_acc_level_6 0
Core_0_L2C_acc_level_7 0
Core_0_L2C_acc_level_8 0
Core_0_L2C_acc_level_9 0

Core_0_LLC_total_access 2140157
Core_0_LLC_total_hit 522372
Core_0_LLC_total_miss 1617785
Core_0_LLC_loads 356563
Core_0_LLC_load_hit 192928
Core_0_LLC_load_miss 163635
Core_0_LLC_RFOs 814416
Core_0_LLC_RFO_hit 66459
Core_0_LLC_RFO_miss 747957
Core_0_LLC_prefetches 0
Core_0_LLC_prefetch_hit 0
Core_0_LLC_prefetch_miss 0
Core_0_LLC_writebacks 969178
Core_0_LLC_writeback_hit 262985
Core_0_LLC_writeback_miss 706193
Core_0_LLC_prefetch_requested 0
Core_0_LLC_prefetch_dropped 0
Core_0_LLC_prefetch_issued 0
Core_0_LLC_prefetch_filled 0
Core_0_LLC_prefetch_useful 0
Core_0_LLC_prefetch_useless 0
Core_0_LLC_prefetch_late 0
Core_0_LLC_average_miss_latency 966.54536

Core_0_LLC_rq_access 1170979
Core_0_LLC_rq_forward 0
Core_0_LLC_rq_merged 0
Core_0_LLC_rq_to_cache 1170979
Core_0_LLC_rq_full 0

Core_0_LLC_wq_access 969178
Core_0_LLC_wq_forward 0
Core_0_LLC_wq_merged 0
Core_0_LLC_wq_to_cache 969178
Core_0_LLC_wq_full 0

Core_0_LLC_pq_access 0
Core_0_LLC_pq_forward 0
Core_0_LLC_pq_merged 0
Core_0_LLC_pq_to_cache 0
Core_0_LLC_pq_full 0

Core_0_LLC_acc_epochs 1445679
Core_0_LLC_acc_level_0 1445679
Core_0_LLC_acc_level_1 0
Core_0_LLC_acc_level_2 0
Core_0_LLC_acc_level_3 0
Core_0_LLC_acc_level_4 0
Core_0_LLC_acc_level_5 0
Core_0_LLC_acc_level_6 0
Core_0_LLC_acc_level_7 0
Core_0_LLC_acc_level_8 0
Core_0_LLC_acc_level_9 0

Core_0_major_page_fault 0
Core_0_minor_page_fault 6504

Channel_0_RQ_row_buffer_hit 156661
Channel_0_RQ_row_buffer_miss 754926
Channel_0_WQ_row_buffer_hit 112430
Channel_0_WQ_row_buffer_miss 743194
Channel_0_WQ_full 0
Channel_0_dbus_congested 1441699

avg_congested_cycle 51

DRAM_bw_pochs 5782713
DRAM_bw_level_0 5488608
DRAM_bw_level_1 86680
DRAM_bw_level_2 49098
DRAM_bw_level_3 158327
