*************************************************
   ChampSim Multicore Out-of-Order Simulator
   Last compiled: Dec 11 2024 17:59:53
*************************************************
parsing config file: /home/functionmain/桌面/Pythia/config/spp_dev2.ini

trace_0 /home/functionmain/桌面/Pythia/traces/445.gobmk-36B.champsimtrace.xz
adding L2C_PREFETCHER: SPP_dev2
Initialize SIGNATURE TABLE
ST_SET: 1
ST_WAY: 256
ST_TAG_BIT: 16
ST_TAG_MASK: ffff

Initialize PATTERN TABLE
PT_SET: 512
PT_WAY: 4
SIG_DELTA_BIT: 7
C_SIG_BIT: 4
C_DELTA_BIT: 4

Initialize PREFETCH FILTER
FILTER_SET: 1024
fill_threshold: 90
pf_threshold: 40

Initialize SHIP state
warmup_instructions 100000000
simulation_instructions 500000000
champsim_seed 171
measure_ipc 0
measure_ipc_epoch 1000
measure_dram_bw 1
measure_dram_bw_epoch 256
measure_cache_acc 1
measure_cache_acc_epoch 1024
l1d_perfect 0
l2c_perfect 0
llc_perfect 0
l1d_semi_perfect 0
l2c_semi_perfect 0
llc_semi_perfect 0
semi_perfect_cache_page_buffer_size 64

num_cpus 1
cpu_freq 4000
dram_io_freq 150
page_size 4096
block_size 64
max_read_per_cycle 8
max_fill_per_cycle 1
dram_channels 1
log2_dram_channels 0
dram_ranks 1
dram_banks 8
dram_rows 65536
dram_columns 128
dram_row_size 8
dram_size 4096
dram_pages 1048576

fetch_width 6
decode_width 6
exec_width 4
lq_width 2
sq_width 2
retire_width 4
scheduler_size 128
branch_mispredict_penalty 20
rob_size 256
lq_size 72
sq_size 56
num_instr_destinations_sparc 4
num_instr_destinations 2
num_instr_sources 4

itlb_set 16
itlb_way 8
itlb_rq_size 16
itlb_wq_size 16
itlb_pq_size 0
itlb_mshr_size 8
itlb_latency 1

dtlb_set 16
dtlb_way 4
dtlb_rq_size 16
dtlb_wq_size 16
dtlb_pq_size 0
dtlb_mshr_size 8
dtlb_latency 1

stlb_set 128
stlb_way 12
stlb_rq_size 32
stlb_wq_size 32
stlb_pq_size 0
stlb_mshr_size 16
stlb_latency 8

l1i_size 32
l1i_set 64
l1i_way 8
l1i_rq_size 64
l1i_wq_size 64
l1i_pq_size 8
l1i_mshr_size 8
l1i_latency 1

l1d_size 32
l1d_set 64
l1d_way 8
l1d_rq_size 64
l1d_wq_size 64
l1d_pq_size 8
l1d_mshr_size 16
l1d_latency 4

l2c_size 256
l2c_set 512
l2c_way 8
l2c_rq_size 32
l2c_wq_size 32
l2c_pq_size 32
l2c_mshr_size 32
l2c_latency 10

llc_size 2048
llc_set 2048
llc_way 16
llc_rq_size 32
llc_wq_size 32
llc_pq_size 32
llc_mshr_size 64
llc_latency 20

dram_channel_width 8
dram_wq_size 64
dram_rq_size 64
tRP 15
tRCD 15
tCAS 12.5
dram_dbus_turn_around_time 30
dram_write_high_wm 56
dram_write_low_wm 48
min_dram_writes_per_switch 16
dram_mtps 150
dram_dbus_return_time 213


Heartbeat CPU  0 instructions:    1000000 cycles:    1143375 heartbeat IPC: 0.87460 cumulative IPC: 0.87460 (Simulation time: 0 hr 0 min 1 sec) 
Heartbeat CPU  0 instructions:    2000000 cycles:    2306859 heartbeat IPC: 0.85949 cumulative IPC: 0.86698 (Simulation time: 0 hr 0 min 3 sec) 
Heartbeat CPU  0 instructions:    3000000 cycles:    3459311 heartbeat IPC: 0.86772 cumulative IPC: 0.86722 (Simulation time: 0 hr 0 min 4 sec) 
Heartbeat CPU  0 instructions:    4000000 cycles:    4510728 heartbeat IPC: 0.95110 cumulative IPC: 0.88677 (Simulation time: 0 hr 0 min 5 sec) 
Heartbeat CPU  0 instructions:    5000001 cycles:    5594528 heartbeat IPC: 0.92268 cumulative IPC: 0.89373 (Simulation time: 0 hr 0 min 6 sec) 
Heartbeat CPU  0 instructions:    6000000 cycles:    6675544 heartbeat IPC: 0.92505 cumulative IPC: 0.89880 (Simulation time: 0 hr 0 min 7 sec) 
Heartbeat CPU  0 instructions:    7000002 cycles:    7776849 heartbeat IPC: 0.90802 cumulative IPC: 0.90011 (Simulation time: 0 hr 0 min 9 sec) 
Heartbeat CPU  0 instructions:    8000000 cycles:    8891860 heartbeat IPC: 0.89685 cumulative IPC: 0.89970 (Simulation time: 0 hr 0 min 10 sec) 
Heartbeat CPU  0 instructions:    9000002 cycles:   10003612 heartbeat IPC: 0.89948 cumulative IPC: 0.89968 (Simulation time: 0 hr 0 min 11 sec) 
Heartbeat CPU  0 instructions:   10000000 cycles:   10942775 heartbeat IPC: 1.06478 cumulative IPC: 0.91385 (Simulation time: 0 hr 0 min 12 sec) 
Heartbeat CPU  0 instructions:   11000002 cycles:   11926670 heartbeat IPC: 1.01637 cumulative IPC: 0.92230 (Simulation time: 0 hr 0 min 13 sec) 
Heartbeat CPU  0 instructions:   12000000 cycles:   13064402 heartbeat IPC: 0.87894 cumulative IPC: 0.91853 (Simulation time: 0 hr 0 min 14 sec) 
Heartbeat CPU  0 instructions:   13000001 cycles:   14085236 heartbeat IPC: 0.97959 cumulative IPC: 0.92295 (Simulation time: 0 hr 0 min 15 sec) 
Heartbeat CPU  0 instructions:   14000001 cycles:   15202356 heartbeat IPC: 0.89516 cumulative IPC: 0.92091 (Simulation time: 0 hr 0 min 17 sec) 
Heartbeat CPU  0 instructions:   15000003 cycles:   16231927 heartbeat IPC: 0.97128 cumulative IPC: 0.92410 (Simulation time: 0 hr 0 min 18 sec) 
Heartbeat CPU  0 instructions:   16000000 cycles:   17274229 heartbeat IPC: 0.95941 cumulative IPC: 0.92624 (Simulation time: 0 hr 0 min 19 sec) 
Heartbeat CPU  0 instructions:   17000001 cycles:   18299169 heartbeat IPC: 0.97567 cumulative IPC: 0.92900 (Simulation time: 0 hr 0 min 20 sec) 
Heartbeat CPU  0 instructions:   18000001 cycles:   19403483 heartbeat IPC: 0.90554 cumulative IPC: 0.92767 (Simulation time: 0 hr 0 min 21 sec) 
Heartbeat CPU  0 instructions:   19000003 cycles:   20431952 heartbeat IPC: 0.97232 cumulative IPC: 0.92992 (Simulation time: 0 hr 0 min 23 sec) 
Heartbeat CPU  0 instructions:   20000000 cycles:   21406793 heartbeat IPC: 1.02581 cumulative IPC: 0.93428 (Simulation time: 0 hr 0 min 24 sec) 
Heartbeat CPU  0 instructions:   21000002 cycles:   22411654 heartbeat IPC: 0.99516 cumulative IPC: 0.93701 (Simulation time: 0 hr 0 min 25 sec) 
Heartbeat CPU  0 instructions:   22000002 cycles:   23404057 heartbeat IPC: 1.00766 cumulative IPC: 0.94001 (Simulation time: 0 hr 0 min 26 sec) 
Heartbeat CPU  0 instructions:   23000000 cycles:   24444104 heartbeat IPC: 0.96149 cumulative IPC: 0.94092 (Simulation time: 0 hr 0 min 27 sec) 
Heartbeat CPU  0 instructions:   24000000 cycles:   25400898 heartbeat IPC: 1.04516 cumulative IPC: 0.94485 (Simulation time: 0 hr 0 min 29 sec) 
Heartbeat CPU  0 instructions:   25000000 cycles:   26459093 heartbeat IPC: 0.94501 cumulative IPC: 0.94485 (Simulation time: 0 hr 0 min 30 sec) 
Heartbeat CPU  0 instructions:   26000001 cycles:   27521566 heartbeat IPC: 0.94120 cumulative IPC: 0.94471 (Simulation time: 0 hr 0 min 31 sec) 
Heartbeat CPU  0 instructions:   27000001 cycles:   28509966 heartbeat IPC: 1.01174 cumulative IPC: 0.94704 (Simulation time: 0 hr 0 min 32 sec) 
Heartbeat CPU  0 instructions:   28000000 cycles:   29571941 heartbeat IPC: 0.94164 cumulative IPC: 0.94684 (Simulation time: 0 hr 0 min 33 sec) 
Heartbeat CPU  0 instructions:   29000002 cycles:   30608710 heartbeat IPC: 0.96454 cumulative IPC: 0.94744 (Simulation time: 0 hr 0 min 35 sec) 
Heartbeat CPU  0 instructions:   30000001 cycles:   31606019 heartbeat IPC: 1.00270 cumulative IPC: 0.94919 (Simulation time: 0 hr 0 min 36 sec) 
Heartbeat CPU  0 instructions:   31000002 cycles:   32715773 heartbeat IPC: 0.90110 cumulative IPC: 0.94756 (Simulation time: 0 hr 0 min 37 sec) 
Heartbeat CPU  0 instructions:   32000000 cycles:   33764708 heartbeat IPC: 0.95335 cumulative IPC: 0.94774 (Simulation time: 0 hr 0 min 38 sec) 
Heartbeat CPU  0 instructions:   33000000 cycles:   34831606 heartbeat IPC: 0.93730 cumulative IPC: 0.94742 (Simulation time: 0 hr 0 min 39 sec) 
Heartbeat CPU  0 instructions:   34000000 cycles:   35878507 heartbeat IPC: 0.95520 cumulative IPC: 0.94764 (Simulation time: 0 hr 0 min 41 sec) 
Heartbeat CPU  0 instructions:   35000003 cycles:   36875079 heartbeat IPC: 1.00344 cumulative IPC: 0.94915 (Simulation time: 0 hr 0 min 42 sec) 
Heartbeat CPU  0 instructions:   36000000 cycles:   37971382 heartbeat IPC: 0.91215 cumulative IPC: 0.94808 (Simulation time: 0 hr 0 min 43 sec) 
Heartbeat CPU  0 instructions:   37000003 cycles:   39033054 heartbeat IPC: 0.94191 cumulative IPC: 0.94791 (Simulation time: 0 hr 0 min 44 sec) 
Heartbeat CPU  0 instructions:   38000002 cycles:   40056631 heartbeat IPC: 0.97697 cumulative IPC: 0.94866 (Simulation time: 0 hr 0 min 45 sec) 
Heartbeat CPU  0 instructions:   39000003 cycles:   41109298 heartbeat IPC: 0.94997 cumulative IPC: 0.94869 (Simulation time: 0 hr 0 min 46 sec) 
Heartbeat CPU  0 instructions:   40000000 cycles:   42184939 heartbeat IPC: 0.92968 cumulative IPC: 0.94821 (Simulation time: 0 hr 0 min 48 sec) 
Heartbeat CPU  0 instructions:   41000003 cycles:   43307195 heartbeat IPC: 0.89106 cumulative IPC: 0.94672 (Simulation time: 0 hr 0 min 49 sec) 
Heartbeat CPU  0 instructions:   42000001 cycles:   44337729 heartbeat IPC: 0.97037 cumulative IPC: 0.94727 (Simulation time: 0 hr 0 min 50 sec) 
Heartbeat CPU  0 instructions:   43000002 cycles:   45358033 heartbeat IPC: 0.98010 cumulative IPC: 0.94801 (Simulation time: 0 hr 0 min 51 sec) 
Heartbeat CPU  0 instructions:   44000000 cycles:   46441539 heartbeat IPC: 0.92293 cumulative IPC: 0.94743 (Simulation time: 0 hr 0 min 52 sec) 
Heartbeat CPU  0 instructions:   45000001 cycles:   47556334 heartbeat IPC: 0.89703 cumulative IPC: 0.94625 (Simulation time: 0 hr 0 min 54 sec) 
Heartbeat CPU  0 instructions:   46000002 cycles:   48613625 heartbeat IPC: 0.94581 cumulative IPC: 0.94624 (Simulation time: 0 hr 0 min 55 sec) 
Heartbeat CPU  0 instructions:   47000003 cycles:   49581334 heartbeat IPC: 1.03337 cumulative IPC: 0.94794 (Simulation time: 0 hr 0 min 56 sec) 
Heartbeat CPU  0 instructions:   48000000 cycles:   50583059 heartbeat IPC: 0.99827 cumulative IPC: 0.94893 (Simulation time: 0 hr 0 min 57 sec) 
Heartbeat CPU  0 instructions:   49000000 cycles:   51639619 heartbeat IPC: 0.94647 cumulative IPC: 0.94888 (Simulation time: 0 hr 0 min 58 sec) 
Heartbeat CPU  0 instructions:   50000001 cycles:   52685472 heartbeat IPC: 0.95616 cumulative IPC: 0.94903 (Simulation time: 0 hr 1 min 0 sec) 
Heartbeat CPU  0 instructions:   51000001 cycles:   53734375 heartbeat IPC: 0.95338 cumulative IPC: 0.94911 (Simulation time: 0 hr 1 min 1 sec) 
Heartbeat CPU  0 instructions:   52000000 cycles:   54802066 heartbeat IPC: 0.93660 cumulative IPC: 0.94887 (Simulation time: 0 hr 1 min 2 sec) 
Heartbeat CPU  0 instructions:   53000000 cycles:   55909320 heartbeat IPC: 0.90314 cumulative IPC: 0.94796 (Simulation time: 0 hr 1 min 3 sec) 
Heartbeat CPU  0 instructions:   54000003 cycles:   57026733 heartbeat IPC: 0.89493 cumulative IPC: 0.94692 (Simulation time: 0 hr 1 min 4 sec) 
Heartbeat CPU  0 instructions:   55000003 cycles:   58114763 heartbeat IPC: 0.91909 cumulative IPC: 0.94640 (Simulation time: 0 hr 1 min 6 sec) 
Heartbeat CPU  0 instructions:   56000000 cycles:   59175482 heartbeat IPC: 0.94275 cumulative IPC: 0.94634 (Simulation time: 0 hr 1 min 7 sec) 
Heartbeat CPU  0 instructions:   57000000 cycles:   60281734 heartbeat IPC: 0.90395 cumulative IPC: 0.94556 (Simulation time: 0 hr 1 min 8 sec) 
Heartbeat CPU  0 instructions:   58000000 cycles:   61325934 heartbeat IPC: 0.95767 cumulative IPC: 0.94577 (Simulation time: 0 hr 1 min 9 sec) 
Heartbeat CPU  0 instructions:   59000003 cycles:   62436616 heartbeat IPC: 0.90035 cumulative IPC: 0.94496 (Simulation time: 0 hr 1 min 11 sec) 
Heartbeat CPU  0 instructions:   60000000 cycles:   63505508 heartbeat IPC: 0.93555 cumulative IPC: 0.94480 (Simulation time: 0 hr 1 min 12 sec) 
Heartbeat CPU  0 instructions:   61000001 cycles:   64646324 heartbeat IPC: 0.87657 cumulative IPC: 0.94360 (Simulation time: 0 hr 1 min 13 sec) 
Heartbeat CPU  0 instructions:   62000001 cycles:   65697125 heartbeat IPC: 0.95165 cumulative IPC: 0.94372 (Simulation time: 0 hr 1 min 14 sec) 
Heartbeat CPU  0 instructions:   63000000 cycles:   66748394 heartbeat IPC: 0.95123 cumulative IPC: 0.94384 (Simulation time: 0 hr 1 min 15 sec) 
Heartbeat CPU  0 instructions:   64000000 cycles:   67822028 heartbeat IPC: 0.93142 cumulative IPC: 0.94365 (Simulation time: 0 hr 1 min 16 sec) 
Heartbeat CPU  0 instructions:   65000000 cycles:   68903573 heartbeat IPC: 0.92460 cumulative IPC: 0.94335 (Simulation time: 0 hr 1 min 18 sec) 
Heartbeat CPU  0 instructions:   66000000 cycles:   69994800 heartbeat IPC: 0.91640 cumulative IPC: 0.94293 (Simulation time: 0 hr 1 min 19 sec) 
Heartbeat CPU  0 instructions:   67000000 cycles:   71026191 heartbeat IPC: 0.96956 cumulative IPC: 0.94331 (Simulation time: 0 hr 1 min 20 sec) 
Heartbeat CPU  0 instructions:   68000000 cycles:   72081911 heartbeat IPC: 0.94722 cumulative IPC: 0.94337 (Simulation time: 0 hr 1 min 21 sec) 
Heartbeat CPU  0 instructions:   69000003 cycles:   73170042 heartbeat IPC: 0.91901 cumulative IPC: 0.94301 (Simulation time: 0 hr 1 min 22 sec) 
Heartbeat CPU  0 instructions:   70000001 cycles:   74351697 heartbeat IPC: 0.84627 cumulative IPC: 0.94147 (Simulation time: 0 hr 1 min 24 sec) 
Heartbeat CPU  0 instructions:   71000001 cycles:   75370297 heartbeat IPC: 0.98174 cumulative IPC: 0.94202 (Simulation time: 0 hr 1 min 25 sec) 
Heartbeat CPU  0 instructions:   72000000 cycles:   76442886 heartbeat IPC: 0.93232 cumulative IPC: 0.94188 (Simulation time: 0 hr 1 min 26 sec) 
Heartbeat CPU  0 instructions:   73000002 cycles:   77570840 heartbeat IPC: 0.88656 cumulative IPC: 0.94108 (Simulation time: 0 hr 1 min 27 sec) 
Heartbeat CPU  0 instructions:   74000000 cycles:   78647759 heartbeat IPC: 0.92857 cumulative IPC: 0.94090 (Simulation time: 0 hr 1 min 28 sec) 
Heartbeat CPU  0 instructions:   75000001 cycles:   79726136 heartbeat IPC: 0.92732 cumulative IPC: 0.94072 (Simulation time: 0 hr 1 min 30 sec) 
Heartbeat CPU  0 instructions:   76000000 cycles:   80702983 heartbeat IPC: 1.02370 cumulative IPC: 0.94172 (Simulation time: 0 hr 1 min 31 sec) 
Heartbeat CPU  0 instructions:   77000001 cycles:   81791227 heartbeat IPC: 0.91891 cumulative IPC: 0.94142 (Simulation time: 0 hr 1 min 32 sec) 
Heartbeat CPU  0 instructions:   78000000 cycles:   82841612 heartbeat IPC: 0.95203 cumulative IPC: 0.94156 (Simulation time: 0 hr 1 min 33 sec) 
Heartbeat CPU  0 instructions:   79000000 cycles:   83954976 heartbeat IPC: 0.89818 cumulative IPC: 0.94098 (Simulation time: 0 hr 1 min 34 sec) 
Heartbeat CPU  0 instructions:   80000000 cycles:   84958046 heartbeat IPC: 0.99694 cumulative IPC: 0.94164 (Simulation time: 0 hr 1 min 35 sec) 
Heartbeat CPU  0 instructions:   81000003 cycles:   85975497 heartbeat IPC: 0.98285 cumulative IPC: 0.94213 (Simulation time: 0 hr 1 min 37 sec) 
Heartbeat CPU  0 instructions:   82000002 cycles:   87071765 heartbeat IPC: 0.91218 cumulative IPC: 0.94175 (Simulation time: 0 hr 1 min 38 sec) 
Heartbeat CPU  0 instructions:   83000001 cycles:   88165420 heartbeat IPC: 0.91436 cumulative IPC: 0.94141 (Simulation time: 0 hr 1 min 39 sec) 
Heartbeat CPU  0 instructions:   84000000 cycles:   89119018 heartbeat IPC: 1.04866 cumulative IPC: 0.94256 (Simulation time: 0 hr 1 min 40 sec) 
Heartbeat CPU  0 instructions:   85000001 cycles:   90259266 heartbeat IPC: 0.87700 cumulative IPC: 0.94173 (Simulation time: 0 hr 1 min 42 sec) 
Heartbeat CPU  0 instructions:   86000000 cycles:   91422234 heartbeat IPC: 0.85987 cumulative IPC: 0.94069 (Simulation time: 0 hr 1 min 43 sec) 
Heartbeat CPU  0 instructions:   87000000 cycles:   92520114 heartbeat IPC: 0.91085 cumulative IPC: 0.94034 (Simulation time: 0 hr 1 min 44 sec) 
Heartbeat CPU  0 instructions:   88000000 cycles:   93615258 heartbeat IPC: 0.91312 cumulative IPC: 0.94002 (Simulation time: 0 hr 1 min 45 sec) 
Heartbeat CPU  0 instructions:   89000001 cycles:   94757668 heartbeat IPC: 0.87534 cumulative IPC: 0.93924 (Simulation time: 0 hr 1 min 46 sec) 
Heartbeat CPU  0 instructions:   90000000 cycles:   95892212 heartbeat IPC: 0.88141 cumulative IPC: 0.93855 (Simulation time: 0 hr 1 min 47 sec) 
Heartbeat CPU  0 instructions:   91000000 cycles:   97057576 heartbeat IPC: 0.85810 cumulative IPC: 0.93759 (Simulation time: 0 hr 1 min 49 sec) 
Heartbeat CPU  0 instructions:   92000000 cycles:   98092899 heartbeat IPC: 0.96588 cumulative IPC: 0.93789 (Simulation time: 0 hr 1 min 50 sec) 
Heartbeat CPU  0 instructions:   93000003 cycles:   99057139 heartbeat IPC: 1.03709 cumulative IPC: 0.93885 (Simulation time: 0 hr 1 min 51 sec) 
Heartbeat CPU  0 instructions:   94000003 cycles:  100186152 heartbeat IPC: 0.88573 cumulative IPC: 0.93825 (Simulation time: 0 hr 1 min 52 sec) 
Heartbeat CPU  0 instructions:   95000000 cycles:  101240075 heartbeat IPC: 0.94883 cumulative IPC: 0.93836 (Simulation time: 0 hr 1 min 54 sec) 
Heartbeat CPU  0 instructions:   96000000 cycles:  102330222 heartbeat IPC: 0.91731 cumulative IPC: 0.93814 (Simulation time: 0 hr 1 min 55 sec) 
Heartbeat CPU  0 instructions:   97000000 cycles:  103447994 heartbeat IPC: 0.89464 cumulative IPC: 0.93767 (Simulation time: 0 hr 1 min 56 sec) 
Heartbeat CPU  0 instructions:   98000001 cycles:  104440445 heartbeat IPC: 1.00761 cumulative IPC: 0.93833 (Simulation time: 0 hr 1 min 57 sec) 
Heartbeat CPU  0 instructions:   99000000 cycles:  105468677 heartbeat IPC: 0.97254 cumulative IPC: 0.93867 (Simulation time: 0 hr 1 min 58 sec) 
Heartbeat CPU  0 instructions:  100000000 cycles:  106525790 heartbeat IPC: 0.94597 cumulative IPC: 0.93874 (Simulation time: 0 hr 2 min 0 sec) 

Warmup complete CPU  0 instructions:  100000001 cycles:  106525792 (Simulation time: 0 hr 2 min 0 sec) 

Heartbeat CPU  0 instructions:  101000000 cycles:  109319983 heartbeat IPC: 0.35789 cumulative IPC: 0.35788 (Simulation time: 0 hr 2 min 2 sec) 
Heartbeat CPU  0 instructions:  102000001 cycles:  111996731 heartbeat IPC: 0.37359 cumulative IPC: 0.36557 (Simulation time: 0 hr 2 min 3 sec) 
Heartbeat CPU  0 instructions:  103000003 cycles:  114649657 heartbeat IPC: 0.37694 cumulative IPC: 0.36928 (Simulation time: 0 hr 2 min 5 sec) 
Heartbeat CPU  0 instructions:  104000000 cycles:  117192495 heartbeat IPC: 0.39326 cumulative IPC: 0.37500 (Simulation time: 0 hr 2 min 7 sec) 
Heartbeat CPU  0 instructions:  105000000 cycles:  119987411 heartbeat IPC: 0.35779 cumulative IPC: 0.37143 (Simulation time: 0 hr 2 min 9 sec) 
Heartbeat CPU  0 instructions:  106000000 cycles:  122713119 heartbeat IPC: 0.36688 cumulative IPC: 0.37066 (Simulation time: 0 hr 2 min 11 sec) 
Heartbeat CPU  0 instructions:  107000002 cycles:  125321331 heartbeat IPC: 0.38341 cumulative IPC: 0.37243 (Simulation time: 0 hr 2 min 13 sec) 
Heartbeat CPU  0 instructions:  108000000 cycles:  128013770 heartbeat IPC: 0.37141 cumulative IPC: 0.37230 (Simulation time: 0 hr 2 min 15 sec) 
Heartbeat CPU  0 instructions:  109000002 cycles:  130672388 heartbeat IPC: 0.37614 cumulative IPC: 0.37272 (Simulation time: 0 hr 2 min 17 sec) 
Heartbeat CPU  0 instructions:  110000002 cycles:  133341759 heartbeat IPC: 0.37462 cumulative IPC: 0.37291 (Simulation time: 0 hr 2 min 19 sec) 
Heartbeat CPU  0 instructions:  111000000 cycles:  135893996 heartbeat IPC: 0.39181 cumulative IPC: 0.37455 (Simulation time: 0 hr 2 min 20 sec) 
Heartbeat CPU  0 instructions:  112000000 cycles:  138664840 heartbeat IPC: 0.36090 cumulative IPC: 0.37338 (Simulation time: 0 hr 2 min 22 sec) 
Heartbeat CPU  0 instructions:  113000000 cycles:  141277771 heartbeat IPC: 0.38271 cumulative IPC: 0.37408 (Simulation time: 0 hr 2 min 24 sec) 
Heartbeat CPU  0 instructions:  114000000 cycles:  144109845 heartbeat IPC: 0.35310 cumulative IPC: 0.37250 (Simulation time: 0 hr 2 min 26 sec) 
Heartbeat CPU  0 instructions:  115000003 cycles:  146855054 heartbeat IPC: 0.36427 cumulative IPC: 0.37194 (Simulation time: 0 hr 2 min 28 sec) 
Heartbeat CPU  0 instructions:  116000000 cycles:  149555220 heartbeat IPC: 0.37035 cumulative IPC: 0.37184 (Simulation time: 0 hr 2 min 30 sec) 
Heartbeat CPU  0 instructions:  117000001 cycles:  152214184 heartbeat IPC: 0.37609 cumulative IPC: 0.37209 (Simulation time: 0 hr 2 min 32 sec) 
Heartbeat CPU  0 instructions:  118000000 cycles:  154847861 heartbeat IPC: 0.37970 cumulative IPC: 0.37250 (Simulation time: 0 hr 2 min 34 sec) 
Heartbeat CPU  0 instructions:  119000001 cycles:  157654290 heartbeat IPC: 0.35633 cumulative IPC: 0.37161 (Simulation time: 0 hr 2 min 35 sec) 
Heartbeat CPU  0 instructions:  120000000 cycles:  160352859 heartbeat IPC: 0.37057 cumulative IPC: 0.37156 (Simulation time: 0 hr 2 min 37 sec) 
Heartbeat CPU  0 instructions:  121000000 cycles:  163114222 heartbeat IPC: 0.36214 cumulative IPC: 0.37110 (Simulation time: 0 hr 2 min 39 sec) 
Heartbeat CPU  0 instructions:  122000001 cycles:  165812078 heartbeat IPC: 0.37067 cumulative IPC: 0.37108 (Simulation time: 0 hr 2 min 41 sec) 
Heartbeat CPU  0 instructions:  123000000 cycles:  168442636 heartbeat IPC: 0.38015 cumulative IPC: 0.37147 (Simulation time: 0 hr 2 min 43 sec) 
Heartbeat CPU  0 instructions:  124000000 cycles:  171152973 heartbeat IPC: 0.36896 cumulative IPC: 0.37136 (Simulation time: 0 hr 2 min 45 sec) 
Heartbeat CPU  0 instructions:  125000001 cycles:  173934296 heartbeat IPC: 0.35954 cumulative IPC: 0.37087 (Simulation time: 0 hr 2 min 47 sec) 
Heartbeat CPU  0 instructions:  126000000 cycles:  176695378 heartbeat IPC: 0.36218 cumulative IPC: 0.37053 (Simulation time: 0 hr 2 min 49 sec) 
Heartbeat CPU  0 instructions:  127000000 cycles:  179258977 heartbeat IPC: 0.39008 cumulative IPC: 0.37122 (Simulation time: 0 hr 2 min 51 sec) 
Heartbeat CPU  0 instructions:  128000000 cycles:  181978172 heartbeat IPC: 0.36776 cumulative IPC: 0.37109 (Simulation time: 0 hr 2 min 53 sec) 
Heartbeat CPU  0 instructions:  129000001 cycles:  184767788 heartbeat IPC: 0.35847 cumulative IPC: 0.37064 (Simulation time: 0 hr 2 min 55 sec) 
Heartbeat CPU  0 instructions:  130000000 cycles:  187481877 heartbeat IPC: 0.36845 cumulative IPC: 0.37057 (Simulation time: 0 hr 2 min 56 sec) 
Heartbeat CPU  0 instructions:  131000001 cycles:  190095477 heartbeat IPC: 0.38261 cumulative IPC: 0.37095 (Simulation time: 0 hr 2 min 58 sec) 
Heartbeat CPU  0 instructions:  132000000 cycles:  192732327 heartbeat IPC: 0.37924 cumulative IPC: 0.37120 (Simulation time: 0 hr 3 min 0 sec) 
Heartbeat CPU  0 instructions:  133000000 cycles:  195404219 heartbeat IPC: 0.37427 cumulative IPC: 0.37129 (Simulation time: 0 hr 3 min 2 sec) 
Heartbeat CPU  0 instructions:  134000001 cycles:  198117882 heartbeat IPC: 0.36851 cumulative IPC: 0.37121 (Simulation time: 0 hr 3 min 4 sec) 
Heartbeat CPU  0 instructions:  135000002 cycles:  200876919 heartbeat IPC: 0.36245 cumulative IPC: 0.37095 (Simulation time: 0 hr 3 min 6 sec) 
Heartbeat CPU  0 instructions:  136000000 cycles:  203396543 heartbeat IPC: 0.39688 cumulative IPC: 0.37163 (Simulation time: 0 hr 3 min 8 sec) 
Heartbeat CPU  0 instructions:  137000002 cycles:  206096672 heartbeat IPC: 0.37035 cumulative IPC: 0.37159 (Simulation time: 0 hr 3 min 10 sec) 
Heartbeat CPU  0 instructions:  138000000 cycles:  208826606 heartbeat IPC: 0.36631 cumulative IPC: 0.37145 (Simulation time: 0 hr 3 min 12 sec) 
Heartbeat CPU  0 instructions:  139000000 cycles:  211487822 heartbeat IPC: 0.37577 cumulative IPC: 0.37156 (Simulation time: 0 hr 3 min 13 sec) 
Heartbeat CPU  0 instructions:  140000000 cycles:  214279947 heartbeat IPC: 0.35815 cumulative IPC: 0.37122 (Simulation time: 0 hr 3 min 15 sec) 
Heartbeat CPU  0 instructions:  141000000 cycles:  216699080 heartbeat IPC: 0.41337 cumulative IPC: 0.37214 (Simulation time: 0 hr 3 min 17 sec) 
Heartbeat CPU  0 instructions:  142000000 cycles:  219276809 heartbeat IPC: 0.38794 cumulative IPC: 0.37250 (Simulation time: 0 hr 3 min 19 sec) 
Heartbeat CPU  0 instructions:  143000000 cycles:  222122397 heartbeat IPC: 0.35142 cumulative IPC: 0.37198 (Simulation time: 0 hr 3 min 21 sec) 
Heartbeat CPU  0 instructions:  144000000 cycles:  224939511 heartbeat IPC: 0.35497 cumulative IPC: 0.37158 (Simulation time: 0 hr 3 min 23 sec) 
Heartbeat CPU  0 instructions:  145000003 cycles:  227645406 heartbeat IPC: 0.36956 cumulative IPC: 0.37153 (Simulation time: 0 hr 3 min 25 sec) 
Heartbeat CPU  0 instructions:  146000000 cycles:  230402132 heartbeat IPC: 0.36275 cumulative IPC: 0.37134 (Simulation time: 0 hr 3 min 26 sec) 
Heartbeat CPU  0 instructions:  147000000 cycles:  233095095 heartbeat IPC: 0.37134 cumulative IPC: 0.37134 (Simulation time: 0 hr 3 min 28 sec) 
Heartbeat CPU  0 instructions:  148000000 cycles:  235832554 heartbeat IPC: 0.36530 cumulative IPC: 0.37121 (Simulation time: 0 hr 3 min 30 sec) 
Heartbeat CPU  0 instructions:  149000000 cycles:  238142428 heartbeat IPC: 0.43292 cumulative IPC: 0.37229 (Simulation time: 0 hr 3 min 32 sec) 
Heartbeat CPU  0 instructions:  150000000 cycles:  240734893 heartbeat IPC: 0.38573 cumulative IPC: 0.37255 (Simulation time: 0 hr 3 min 34 sec) 
Heartbeat CPU  0 instructions:  151000003 cycles:  243233122 heartbeat IPC: 0.40028 cumulative IPC: 0.37306 (Simulation time: 0 hr 3 min 36 sec) 
Heartbeat CPU  0 instructions:  152000000 cycles:  246077610 heartbeat IPC: 0.35156 cumulative IPC: 0.37262 (Simulation time: 0 hr 3 min 38 sec) 
Heartbeat CPU  0 instructions:  153000000 cycles:  248822743 heartbeat IPC: 0.36428 cumulative IPC: 0.37246 (Simulation time: 0 hr 3 min 39 sec) 
Heartbeat CPU  0 instructions:  154000000 cycles:  251540332 heartbeat IPC: 0.36797 cumulative IPC: 0.37238 (Simulation time: 0 hr 3 min 41 sec) 
Heartbeat CPU  0 instructions:  155000002 cycles:  254254507 heartbeat IPC: 0.36844 cumulative IPC: 0.37230 (Simulation time: 0 hr 3 min 43 sec) 
Heartbeat CPU  0 instructions:  156000000 cycles:  256994738 heartbeat IPC: 0.36493 cumulative IPC: 0.37217 (Simulation time: 0 hr 3 min 45 sec) 
Heartbeat CPU  0 instructions:  157000000 cycles:  259741245 heartbeat IPC: 0.36410 cumulative IPC: 0.37203 (Simulation time: 0 hr 3 min 47 sec) 
Heartbeat CPU  0 instructions:  158000002 cycles:  261720062 heartbeat IPC: 0.50535 cumulative IPC: 0.37373 (Simulation time: 0 hr 3 min 49 sec) 
Heartbeat CPU  0 instructions:  159000001 cycles:  264038753 heartbeat IPC: 0.43128 cumulative IPC: 0.37457 (Simulation time: 0 hr 3 min 50 sec) 
Heartbeat CPU  0 instructions:  160000000 cycles:  266762094 heartbeat IPC: 0.36720 cumulative IPC: 0.37445 (Simulation time: 0 hr 3 min 52 sec) 
Heartbeat CPU  0 instructions:  161000002 cycles:  269435580 heartbeat IPC: 0.37404 cumulative IPC: 0.37444 (Simulation time: 0 hr 3 min 54 sec) 
Heartbeat CPU  0 instructions:  162000000 cycles:  272314099 heartbeat IPC: 0.34740 cumulative IPC: 0.37397 (Simulation time: 0 hr 3 min 56 sec) 
Heartbeat CPU  0 instructions:  163000001 cycles:  275015603 heartbeat IPC: 0.37016 cumulative IPC: 0.37391 (Simulation time: 0 hr 3 min 58 sec) 
Heartbeat CPU  0 instructions:  164000000 cycles:  277724230 heartbeat IPC: 0.36919 cumulative IPC: 0.37384 (Simulation time: 0 hr 4 min 0 sec) 
Heartbeat CPU  0 instructions:  165000001 cycles:  280439594 heartbeat IPC: 0.36828 cumulative IPC: 0.37375 (Simulation time: 0 hr 4 min 2 sec) 
Heartbeat CPU  0 instructions:  166000001 cycles:  283178907 heartbeat IPC: 0.36506 cumulative IPC: 0.37361 (Simulation time: 0 hr 4 min 4 sec) 
Heartbeat CPU  0 instructions:  167000003 cycles:  285979097 heartbeat IPC: 0.35712 cumulative IPC: 0.37336 (Simulation time: 0 hr 4 min 5 sec) 
Heartbeat CPU  0 instructions:  168000000 cycles:  288716938 heartbeat IPC: 0.36525 cumulative IPC: 0.37323 (Simulation time: 0 hr 4 min 7 sec) 
Heartbeat CPU  0 instructions:  169000003 cycles:  291458959 heartbeat IPC: 0.36470 cumulative IPC: 0.37311 (Simulation time: 0 hr 4 min 9 sec) 
Heartbeat CPU  0 instructions:  170000001 cycles:  294186093 heartbeat IPC: 0.36668 cumulative IPC: 0.37301 (Simulation time: 0 hr 4 min 11 sec) 
Heartbeat CPU  0 instructions:  171000001 cycles:  296262695 heartbeat IPC: 0.48156 cumulative IPC: 0.37420 (Simulation time: 0 hr 4 min 13 sec) 
Heartbeat CPU  0 instructions:  172000000 cycles:  298707501 heartbeat IPC: 0.40903 cumulative IPC: 0.37465 (Simulation time: 0 hr 4 min 15 sec) 
Heartbeat CPU  0 instructions:  173000000 cycles:  301395261 heartbeat IPC: 0.37206 cumulative IPC: 0.37461 (Simulation time: 0 hr 4 min 16 sec) 
Heartbeat CPU  0 instructions:  174000000 cycles:  303864216 heartbeat IPC: 0.40503 cumulative IPC: 0.37499 (Simulation time: 0 hr 4 min 18 sec) 
Heartbeat CPU  0 instructions:  175000000 cycles:  306389699 heartbeat IPC: 0.39596 cumulative IPC: 0.37526 (Simulation time: 0 hr 4 min 20 sec) 
Heartbeat CPU  0 instructions:  176000000 cycles:  309085882 heartbeat IPC: 0.37089 cumulative IPC: 0.37520 (Simulation time: 0 hr 4 min 22 sec) 
Heartbeat CPU  0 instructions:  177000000 cycles:  311846922 heartbeat IPC: 0.36218 cumulative IPC: 0.37502 (Simulation time: 0 hr 4 min 24 sec) 
Heartbeat CPU  0 instructions:  178000003 cycles:  314499401 heartbeat IPC: 0.37701 cumulative IPC: 0.37505 (Simulation time: 0 hr 4 min 26 sec) 
Heartbeat CPU  0 instructions:  179000002 cycles:  317195927 heartbeat IPC: 0.37085 cumulative IPC: 0.37499 (Simulation time: 0 hr 4 min 28 sec) 
Heartbeat CPU  0 instructions:  180000000 cycles:  319810047 heartbeat IPC: 0.38254 cumulative IPC: 0.37509 (Simulation time: 0 hr 4 min 30 sec) 
Heartbeat CPU  0 instructions:  181000001 cycles:  322531030 heartbeat IPC: 0.36751 cumulative IPC: 0.37499 (Simulation time: 0 hr 4 min 32 sec) 
Heartbeat CPU  0 instructions:  182000000 cycles:  325396781 heartbeat IPC: 0.34895 cumulative IPC: 0.37465 (Simulation time: 0 hr 4 min 33 sec) 
Heartbeat CPU  0 instructions:  183000000 cycles:  328116393 heartbeat IPC: 0.36770 cumulative IPC: 0.37456 (Simulation time: 0 hr 4 min 35 sec) 
Heartbeat CPU  0 instructions:  184000000 cycles:  330812911 heartbeat IPC: 0.37085 cumulative IPC: 0.37452 (Simulation time: 0 hr 4 min 37 sec) 
Heartbeat CPU  0 instructions:  185000000 cycles:  333494404 heartbeat IPC: 0.37293 cumulative IPC: 0.37450 (Simulation time: 0 hr 4 min 39 sec) 
Heartbeat CPU  0 instructions:  186000003 cycles:  336223423 heartbeat IPC: 0.36643 cumulative IPC: 0.37441 (Simulation time: 0 hr 4 min 41 sec) 
Heartbeat CPU  0 instructions:  187000001 cycles:  338995707 heartbeat IPC: 0.36071 cumulative IPC: 0.37424 (Simulation time: 0 hr 4 min 43 sec) 
Heartbeat CPU  0 instructions:  188000000 cycles:  341726163 heartbeat IPC: 0.36624 cumulative IPC: 0.37415 (Simulation time: 0 hr 4 min 45 sec) 
Heartbeat CPU  0 instructions:  189000001 cycles:  344463363 heartbeat IPC: 0.36534 cumulative IPC: 0.37405 (Simulation time: 0 hr 4 min 47 sec) 
Heartbeat CPU  0 instructions:  190000000 cycles:  347267266 heartbeat IPC: 0.35665 cumulative IPC: 0.37385 (Simulation time: 0 hr 4 min 49 sec) 
Heartbeat CPU  0 instructions:  191000001 cycles:  349983741 heartbeat IPC: 0.36812 cumulative IPC: 0.37378 (Simulation time: 0 hr 4 min 50 sec) 
Heartbeat CPU  0 instructions:  192000000 cycles:  352753126 heartbeat IPC: 0.36109 cumulative IPC: 0.37364 (Simulation time: 0 hr 4 min 52 sec) 
Heartbeat CPU  0 instructions:  193000002 cycles:  355349523 heartbeat IPC: 0.38515 cumulative IPC: 0.37376 (Simulation time: 0 hr 4 min 54 sec) 
Heartbeat CPU  0 instructions:  194000001 cycles:  357290264 heartbeat IPC: 0.51527 cumulative IPC: 0.37485 (Simulation time: 0 hr 4 min 56 sec) 
Heartbeat CPU  0 instructions:  195000000 cycles:  359739902 heartbeat IPC: 0.40822 cumulative IPC: 0.37518 (Simulation time: 0 hr 4 min 57 sec) 
Heartbeat CPU  0 instructions:  196000000 cycles:  362643654 heartbeat IPC: 0.34438 cumulative IPC: 0.37483 (Simulation time: 0 hr 4 min 59 sec) 
Heartbeat CPU  0 instructions:  197000000 cycles:  365335536 heartbeat IPC: 0.37149 cumulative IPC: 0.37479 (Simulation time: 0 hr 5 min 1 sec) 
Heartbeat CPU  0 instructions:  198000000 cycles:  368061065 heartbeat IPC: 0.36690 cumulative IPC: 0.37471 (Simulation time: 0 hr 5 min 3 sec) 
Heartbeat CPU  0 instructions:  199000000 cycles:  370669369 heartbeat IPC: 0.38339 cumulative IPC: 0.37480 (Simulation time: 0 hr 5 min 5 sec) 
Heartbeat CPU  0 instructions:  200000000 cycles:  373204424 heartbeat IPC: 0.39447 cumulative IPC: 0.37498 (Simulation time: 0 hr 5 min 7 sec) 
Heartbeat CPU  0 instructions:  201000001 cycles:  375945538 heartbeat IPC: 0.36482 cumulative IPC: 0.37488 (Simulation time: 0 hr 5 min 9 sec) 
Heartbeat CPU  0 instructions:  202000002 cycles:  378619300 heartbeat IPC: 0.37401 cumulative IPC: 0.37487 (Simulation time: 0 hr 5 min 11 sec) 
Heartbeat CPU  0 instructions:  203000001 cycles:  381378978 heartbeat IPC: 0.36236 cumulative IPC: 0.37475 (Simulation time: 0 hr 5 min 13 sec) 
Heartbeat CPU  0 instructions:  204000000 cycles:  384155034 heartbeat IPC: 0.36022 cumulative IPC: 0.37460 (Simulation time: 0 hr 5 min 14 sec) 
Heartbeat CPU  0 instructions:  205000002 cycles:  386859835 heartbeat IPC: 0.36971 cumulative IPC: 0.37455 (Simulation time: 0 hr 5 min 16 sec) 
Heartbeat CPU  0 instructions:  206000002 cycles:  389587878 heartbeat IPC: 0.36656 cumulative IPC: 0.37448 (Simulation time: 0 hr 5 min 18 sec) 
Heartbeat CPU  0 instructions:  207000001 cycles:  392291702 heartbeat IPC: 0.36985 cumulative IPC: 0.37443 (Simulation time: 0 hr 5 min 20 sec) 
Heartbeat CPU  0 instructions:  208000000 cycles:  395072243 heartbeat IPC: 0.35964 cumulative IPC: 0.37429 (Simulation time: 0 hr 5 min 22 sec) 
Heartbeat CPU  0 instructions:  209000001 cycles:  397629757 heartbeat IPC: 0.39101 cumulative IPC: 0.37444 (Simulation time: 0 hr 5 min 24 sec) 
Heartbeat CPU  0 instructions:  210000000 cycles:  399854884 heartbeat IPC: 0.44941 cumulative IPC: 0.37501 (Simulation time: 0 hr 5 min 26 sec) 
Heartbeat CPU  0 instructions:  211000000 cycles:  402134458 heartbeat IPC: 0.43868 cumulative IPC: 0.37550 (Simulation time: 0 hr 5 min 27 sec) 
Heartbeat CPU  0 instructions:  212000000 cycles:  404929344 heartbeat IPC: 0.35780 cumulative IPC: 0.37533 (Simulation time: 0 hr 5 min 29 sec) 
Heartbeat CPU  0 instructions:  213000000 cycles:  407660042 heartbeat IPC: 0.36621 cumulative IPC: 0.37525 (Simulation time: 0 hr 5 min 31 sec) 
Heartbeat CPU  0 instructions:  214000000 cycles:  410488599 heartbeat IPC: 0.35354 cumulative IPC: 0.37505 (Simulation time: 0 hr 5 min 33 sec) 
Heartbeat CPU  0 instructions:  215000002 cycles:  413242484 heartbeat IPC: 0.36312 cumulative IPC: 0.37494 (Simulation time: 0 hr 5 min 35 sec) 
Heartbeat CPU  0 instructions:  216000000 cycles:  415968858 heartbeat IPC: 0.36679 cumulative IPC: 0.37487 (Simulation time: 0 hr 5 min 37 sec) 
Heartbeat CPU  0 instructions:  217000000 cycles:  418658192 heartbeat IPC: 0.37184 cumulative IPC: 0.37484 (Simulation time: 0 hr 5 min 39 sec) 
Heartbeat CPU  0 instructions:  218000003 cycles:  421398468 heartbeat IPC: 0.36493 cumulative IPC: 0.37475 (Simulation time: 0 hr 5 min 40 sec) 
Heartbeat CPU  0 instructions:  219000000 cycles:  424146024 heartbeat IPC: 0.36396 cumulative IPC: 0.37466 (Simulation time: 0 hr 5 min 42 sec) 
Heartbeat CPU  0 instructions:  220000000 cycles:  426837708 heartbeat IPC: 0.37151 cumulative IPC: 0.37463 (Simulation time: 0 hr 5 min 44 sec) 
Heartbeat CPU  0 instructions:  221000001 cycles:  429604747 heartbeat IPC: 0.36140 cumulative IPC: 0.37452 (Simulation time: 0 hr 5 min 46 sec) 
Heartbeat CPU  0 instructions:  222000001 cycles:  432375868 heartbeat IPC: 0.36086 cumulative IPC: 0.37441 (Simulation time: 0 hr 5 min 48 sec) 
Heartbeat CPU  0 instructions:  223000002 cycles:  435163573 heartbeat IPC: 0.35872 cumulative IPC: 0.37427 (Simulation time: 0 hr 5 min 50 sec) 
Heartbeat CPU  0 instructions:  224000000 cycles:  437953372 heartbeat IPC: 0.35845 cumulative IPC: 0.37414 (Simulation time: 0 hr 5 min 52 sec) 
Heartbeat CPU  0 instructions:  225000000 cycles:  440733096 heartbeat IPC: 0.35975 cumulative IPC: 0.37402 (Simulation time: 0 hr 5 min 54 sec) 
Heartbeat CPU  0 instructions:  226000001 cycles:  443545164 heartbeat IPC: 0.35561 cumulative IPC: 0.37387 (Simulation time: 0 hr 5 min 56 sec) 
Heartbeat CPU  0 instructions:  227000000 cycles:  446270923 heartbeat IPC: 0.36687 cumulative IPC: 0.37381 (Simulation time: 0 hr 5 min 57 sec) 
Heartbeat CPU  0 instructions:  228000000 cycles:  449006805 heartbeat IPC: 0.36551 cumulative IPC: 0.37374 (Simulation time: 0 hr 5 min 59 sec) 
Heartbeat CPU  0 instructions:  229000000 cycles:  451354641 heartbeat IPC: 0.42592 cumulative IPC: 0.37410 (Simulation time: 0 hr 6 min 1 sec) 
Heartbeat CPU  0 instructions:  230000000 cycles:  453417714 heartbeat IPC: 0.48471 cumulative IPC: 0.37476 (Simulation time: 0 hr 6 min 3 sec) 
Heartbeat CPU  0 instructions:  231000001 cycles:  456198898 heartbeat IPC: 0.35956 cumulative IPC: 0.37464 (Simulation time: 0 hr 6 min 5 sec) 
Heartbeat CPU  0 instructions:  232000000 cycles:  458706087 heartbeat IPC: 0.39885 cumulative IPC: 0.37481 (Simulation time: 0 hr 6 min 7 sec) 
Heartbeat CPU  0 instructions:  233000002 cycles:  461254519 heartbeat IPC: 0.39240 cumulative IPC: 0.37493 (Simulation time: 0 hr 6 min 8 sec) 
Heartbeat CPU  0 instructions:  234000002 cycles:  463949675 heartbeat IPC: 0.37104 cumulative IPC: 0.37490 (Simulation time: 0 hr 6 min 10 sec) 
Heartbeat CPU  0 instructions:  235000002 cycles:  466670436 heartbeat IPC: 0.36754 cumulative IPC: 0.37485 (Simulation time: 0 hr 6 min 12 sec) 
Heartbeat CPU  0 instructions:  236000000 cycles:  469308091 heartbeat IPC: 0.37912 cumulative IPC: 0.37488 (Simulation time: 0 hr 6 min 14 sec) 
Heartbeat CPU  0 instructions:  237000001 cycles:  471973158 heartbeat IPC: 0.37523 cumulative IPC: 0.37488 (Simulation time: 0 hr 6 min 16 sec) 
Heartbeat CPU  0 instructions:  238000002 cycles:  474759547 heartbeat IPC: 0.35889 cumulative IPC: 0.37476 (Simulation time: 0 hr 6 min 18 sec) 
Heartbeat CPU  0 instructions:  239000000 cycles:  477381632 heartbeat IPC: 0.38138 cumulative IPC: 0.37481 (Simulation time: 0 hr 6 min 20 sec) 
Heartbeat CPU  0 instructions:  240000000 cycles:  480159717 heartbeat IPC: 0.35996 cumulative IPC: 0.37470 (Simulation time: 0 hr 6 min 22 sec) 
Heartbeat CPU  0 instructions:  241000001 cycles:  482962877 heartbeat IPC: 0.35674 cumulative IPC: 0.37456 (Simulation time: 0 hr 6 min 23 sec) 
Heartbeat CPU  0 instructions:  242000000 cycles:  485664234 heartbeat IPC: 0.37018 cumulative IPC: 0.37453 (Simulation time: 0 hr 6 min 25 sec) 
Heartbeat CPU  0 instructions:  243000002 cycles:  488472516 heartbeat IPC: 0.35609 cumulative IPC: 0.37440 (Simulation time: 0 hr 6 min 27 sec) 
Heartbeat CPU  0 instructions:  244000000 cycles:  491221591 heartbeat IPC: 0.36376 cumulative IPC: 0.37432 (Simulation time: 0 hr 6 min 29 sec) 
Heartbeat CPU  0 instructions:  245000001 cycles:  493879399 heartbeat IPC: 0.37625 cumulative IPC: 0.37433 (Simulation time: 0 hr 6 min 31 sec) 
Heartbeat CPU  0 instructions:  246000000 cycles:  496367117 heartbeat IPC: 0.40197 cumulative IPC: 0.37451 (Simulation time: 0 hr 6 min 33 sec) 
Heartbeat CPU  0 instructions:  247000001 cycles:  499144370 heartbeat IPC: 0.36007 cumulative IPC: 0.37441 (Simulation time: 0 hr 6 min 35 sec) 
Heartbeat CPU  0 instructions:  248000000 cycles:  501685790 heartbeat IPC: 0.39348 cumulative IPC: 0.37453 (Simulation time: 0 hr 6 min 37 sec) 
Heartbeat CPU  0 instructions:  249000000 cycles:  504385366 heartbeat IPC: 0.37043 cumulative IPC: 0.37450 (Simulation time: 0 hr 6 min 39 sec) 
Heartbeat CPU  0 instructions:  250000000 cycles:  507078857 heartbeat IPC: 0.37127 cumulative IPC: 0.37448 (Simulation time: 0 hr 6 min 41 sec) 
Heartbeat CPU  0 instructions:  251000000 cycles:  509442728 heartbeat IPC: 0.42303 cumulative IPC: 0.37477 (Simulation time: 0 hr 6 min 42 sec) 
Heartbeat CPU  0 instructions:  252000000 cycles:  511738730 heartbeat IPC: 0.43554 cumulative IPC: 0.37511 (Simulation time: 0 hr 6 min 44 sec) 
Heartbeat CPU  0 instructions:  253000001 cycles:  514190675 heartbeat IPC: 0.40784 cumulative IPC: 0.37531 (Simulation time: 0 hr 6 min 46 sec) 
Heartbeat CPU  0 instructions:  254000000 cycles:  516815104 heartbeat IPC: 0.38103 cumulative IPC: 0.37534 (Simulation time: 0 hr 6 min 48 sec) 
Heartbeat CPU  0 instructions:  255000001 cycles:  519200651 heartbeat IPC: 0.41919 cumulative IPC: 0.37560 (Simulation time: 0 hr 6 min 50 sec) 
Heartbeat CPU  0 instructions:  256000000 cycles:  522008751 heartbeat IPC: 0.35611 cumulative IPC: 0.37547 (Simulation time: 0 hr 6 min 51 sec) 
Heartbeat CPU  0 instructions:  257000002 cycles:  524825024 heartbeat IPC: 0.35508 cumulative IPC: 0.37533 (Simulation time: 0 hr 6 min 53 sec) 
Heartbeat CPU  0 instructions:  258000001 cycles:  527564647 heartbeat IPC: 0.36501 cumulative IPC: 0.37526 (Simulation time: 0 hr 6 min 55 sec) 
Heartbeat CPU  0 instructions:  259000000 cycles:  530252651 heartbeat IPC: 0.37202 cumulative IPC: 0.37524 (Simulation time: 0 hr 6 min 57 sec) 
Heartbeat CPU  0 instructions:  260000000 cycles:  532949849 heartbeat IPC: 0.37076 cumulative IPC: 0.37521 (Simulation time: 0 hr 6 min 59 sec) 
Heartbeat CPU  0 instructions:  261000001 cycles:  535760701 heartbeat IPC: 0.35576 cumulative IPC: 0.37509 (Simulation time: 0 hr 7 min 1 sec) 
Heartbeat CPU  0 instructions:  262000003 cycles:  538417525 heartbeat IPC: 0.37639 cumulative IPC: 0.37509 (Simulation time: 0 hr 7 min 3 sec) 
Heartbeat CPU  0 instructions:  263000002 cycles:  541213038 heartbeat IPC: 0.35772 cumulative IPC: 0.37498 (Simulation time: 0 hr 7 min 5 sec) 
Heartbeat CPU  0 instructions:  264000000 cycles:  543847604 heartbeat IPC: 0.37957 cumulative IPC: 0.37501 (Simulation time: 0 hr 7 min 6 sec) 
Heartbeat CPU  0 instructions:  265000000 cycles:  546602736 heartbeat IPC: 0.36296 cumulative IPC: 0.37493 (Simulation time: 0 hr 7 min 8 sec) 
Heartbeat CPU  0 instructions:  266000001 cycles:  549427990 heartbeat IPC: 0.35395 cumulative IPC: 0.37480 (Simulation time: 0 hr 7 min 10 sec) 
Heartbeat CPU  0 instructions:  267000003 cycles:  552138649 heartbeat IPC: 0.36891 cumulative IPC: 0.37476 (Simulation time: 0 hr 7 min 12 sec) 
Heartbeat CPU  0 instructions:  268000000 cycles:  554914528 heartbeat IPC: 0.36025 cumulative IPC: 0.37467 (Simulation time: 0 hr 7 min 14 sec) 
Heartbeat CPU  0 instructions:  269000001 cycles:  557668507 heartbeat IPC: 0.36311 cumulative IPC: 0.37460 (Simulation time: 0 hr 7 min 16 sec) 
Heartbeat CPU  0 instructions:  270000000 cycles:  560542467 heartbeat IPC: 0.34795 cumulative IPC: 0.37444 (Simulation time: 0 hr 7 min 18 sec) 
Heartbeat CPU  0 instructions:  271000000 cycles:  563276889 heartbeat IPC: 0.36571 cumulative IPC: 0.37438 (Simulation time: 0 hr 7 min 20 sec) 
Heartbeat CPU  0 instructions:  272000000 cycles:  566004195 heartbeat IPC: 0.36666 cumulative IPC: 0.37434 (Simulation time: 0 hr 7 min 21 sec) 
Heartbeat CPU  0 instructions:  273000001 cycles:  568397474 heartbeat IPC: 0.41784 cumulative IPC: 0.37456 (Simulation time: 0 hr 7 min 23 sec) 
Heartbeat CPU  0 instructions:  274000000 cycles:  570651438 heartbeat IPC: 0.44366 cumulative IPC: 0.37490 (Simulation time: 0 hr 7 min 25 sec) 
Heartbeat CPU  0 instructions:  275000001 cycles:  573125898 heartbeat IPC: 0.40413 cumulative IPC: 0.37505 (Simulation time: 0 hr 7 min 27 sec) 
Heartbeat CPU  0 instructions:  276000000 cycles:  575767755 heartbeat IPC: 0.37852 cumulative IPC: 0.37507 (Simulation time: 0 hr 7 min 29 sec) 
Heartbeat CPU  0 instructions:  277000000 cycles:  578555121 heartbeat IPC: 0.35876 cumulative IPC: 0.37498 (Simulation time: 0 hr 7 min 31 sec) 
Heartbeat CPU  0 instructions:  278000001 cycles:  581406907 heartbeat IPC: 0.35066 cumulative IPC: 0.37483 (Simulation time: 0 hr 7 min 33 sec) 
Heartbeat CPU  0 instructions:  279000002 cycles:  584169387 heartbeat IPC: 0.36199 cumulative IPC: 0.37476 (Simulation time: 0 hr 7 min 34 sec) 
Heartbeat CPU  0 instructions:  280000000 cycles:  586864477 heartbeat IPC: 0.37104 cumulative IPC: 0.37474 (Simulation time: 0 hr 7 min 36 sec) 
Heartbeat CPU  0 instructions:  281000000 cycles:  589591251 heartbeat IPC: 0.36673 cumulative IPC: 0.37469 (Simulation time: 0 hr 7 min 38 sec) 
Heartbeat CPU  0 instructions:  282000003 cycles:  592381276 heartbeat IPC: 0.35842 cumulative IPC: 0.37460 (Simulation time: 0 hr 7 min 40 sec) 
Heartbeat CPU  0 instructions:  283000003 cycles:  595103243 heartbeat IPC: 0.36738 cumulative IPC: 0.37456 (Simulation time: 0 hr 7 min 42 sec) 
Heartbeat CPU  0 instructions:  284000000 cycles:  597731045 heartbeat IPC: 0.38055 cumulative IPC: 0.37459 (Simulation time: 0 hr 7 min 44 sec) 
Heartbeat CPU  0 instructions:  285000001 cycles:  600525950 heartbeat IPC: 0.35779 cumulative IPC: 0.37449 (Simulation time: 0 hr 7 min 46 sec) 
Heartbeat CPU  0 instructions:  286000003 cycles:  603217445 heartbeat IPC: 0.37154 cumulative IPC: 0.37448 (Simulation time: 0 hr 7 min 48 sec) 
Heartbeat CPU  0 instructions:  287000000 cycles:  605963690 heartbeat IPC: 0.36413 cumulative IPC: 0.37442 (Simulation time: 0 hr 7 min 50 sec) 
Heartbeat CPU  0 instructions:  288000000 cycles:  608752558 heartbeat IPC: 0.35857 cumulative IPC: 0.37433 (Simulation time: 0 hr 7 min 51 sec) 
Heartbeat CPU  0 instructions:  289000000 cycles:  611478881 heartbeat IPC: 0.36679 cumulative IPC: 0.37429 (Simulation time: 0 hr 7 min 53 sec) 
Heartbeat CPU  0 instructions:  290000000 cycles:  614294318 heartbeat IPC: 0.35518 cumulative IPC: 0.37419 (Simulation time: 0 hr 7 min 55 sec) 
Heartbeat CPU  0 instructions:  291000000 cycles:  617036491 heartbeat IPC: 0.36467 cumulative IPC: 0.37414 (Simulation time: 0 hr 7 min 57 sec) 
Heartbeat CPU  0 instructions:  292000000 cycles:  619741104 heartbeat IPC: 0.36974 cumulative IPC: 0.37411 (Simulation time: 0 hr 7 min 59 sec) 
Heartbeat CPU  0 instructions:  293000002 cycles:  622573223 heartbeat IPC: 0.35309 cumulative IPC: 0.37400 (Simulation time: 0 hr 8 min 1 sec) 
Heartbeat CPU  0 instructions:  294000003 cycles:  625282175 heartbeat IPC: 0.36915 cumulative IPC: 0.37397 (Simulation time: 0 hr 8 min 3 sec) 
Heartbeat CPU  0 instructions:  295000003 cycles:  628056753 heartbeat IPC: 0.36042 cumulative IPC: 0.37390 (Simulation time: 0 hr 8 min 5 sec) 
Heartbeat CPU  0 instructions:  296000000 cycles:  630682074 heartbeat IPC: 0.38090 cumulative IPC: 0.37393 (Simulation time: 0 hr 8 min 7 sec) 
Heartbeat CPU  0 instructions:  297000001 cycles:  632821533 heartbeat IPC: 0.46741 cumulative IPC: 0.37431 (Simulation time: 0 hr 8 min 8 sec) 
Heartbeat CPU  0 instructions:  298000000 cycles:  635230332 heartbeat IPC: 0.41514 cumulative IPC: 0.37450 (Simulation time: 0 hr 8 min 10 sec) 
Heartbeat CPU  0 instructions:  299000000 cycles:  637868590 heartbeat IPC: 0.37904 cumulative IPC: 0.37452 (Simulation time: 0 hr 8 min 12 sec) 
Heartbeat CPU  0 instructions:  300000000 cycles:  640379885 heartbeat IPC: 0.39820 cumulative IPC: 0.37463 (Simulation time: 0 hr 8 min 14 sec) 
Heartbeat CPU  0 instructions:  301000001 cycles:  642883225 heartbeat IPC: 0.39947 cumulative IPC: 0.37475 (Simulation time: 0 hr 8 min 16 sec) 
Heartbeat CPU  0 instructions:  302000000 cycles:  645486300 heartbeat IPC: 0.38416 cumulative IPC: 0.37480 (Simulation time: 0 hr 8 min 18 sec) 
Heartbeat CPU  0 instructions:  303000003 cycles:  648244187 heartbeat IPC: 0.36260 cumulative IPC: 0.37473 (Simulation time: 0 hr 8 min 19 sec) 
Heartbeat CPU  0 instructions:  304000000 cycles:  650925664 heartbeat IPC: 0.37293 cumulative IPC: 0.37472 (Simulation time: 0 hr 8 min 21 sec) 
Heartbeat CPU  0 instructions:  305000000 cycles:  653664076 heartbeat IPC: 0.36518 cumulative IPC: 0.37468 (Simulation time: 0 hr 8 min 23 sec) 
Heartbeat CPU  0 instructions:  306000002 cycles:  656516060 heartbeat IPC: 0.35063 cumulative IPC: 0.37455 (Simulation time: 0 hr 8 min 25 sec) 
Heartbeat CPU  0 instructions:  307000000 cycles:  659267840 heartbeat IPC: 0.36340 cumulative IPC: 0.37450 (Simulation time: 0 hr 8 min 27 sec) 
Heartbeat CPU  0 instructions:  308000000 cycles:  661969061 heartbeat IPC: 0.37020 cumulative IPC: 0.37448 (Simulation time: 0 hr 8 min 29 sec) 
Heartbeat CPU  0 instructions:  309000000 cycles:  664678821 heartbeat IPC: 0.36904 cumulative IPC: 0.37445 (Simulation time: 0 hr 8 min 31 sec) 
Heartbeat CPU  0 instructions:  310000000 cycles:  667432445 heartbeat IPC: 0.36316 cumulative IPC: 0.37439 (Simulation time: 0 hr 8 min 33 sec) 
Heartbeat CPU  0 instructions:  311000003 cycles:  670164645 heartbeat IPC: 0.36601 cumulative IPC: 0.37435 (Simulation time: 0 hr 8 min 35 sec) 
Heartbeat CPU  0 instructions:  312000000 cycles:  672796150 heartbeat IPC: 0.38001 cumulative IPC: 0.37438 (Simulation time: 0 hr 8 min 36 sec) 
Heartbeat CPU  0 instructions:  313000000 cycles:  675559485 heartbeat IPC: 0.36188 cumulative IPC: 0.37432 (Simulation time: 0 hr 8 min 38 sec) 
Heartbeat CPU  0 instructions:  314000002 cycles:  678271683 heartbeat IPC: 0.36871 cumulative IPC: 0.37429 (Simulation time: 0 hr 8 min 40 sec) 
Heartbeat CPU  0 instructions:  315000002 cycles:  680963439 heartbeat IPC: 0.37150 cumulative IPC: 0.37428 (Simulation time: 0 hr 8 min 42 sec) 
Heartbeat CPU  0 instructions:  316000000 cycles:  683728364 heartbeat IPC: 0.36167 cumulative IPC: 0.37422 (Simulation time: 0 hr 8 min 44 sec) 
Heartbeat CPU  0 instructions:  317000001 cycles:  686494338 heartbeat IPC: 0.36154 cumulative IPC: 0.37416 (Simulation time: 0 hr 8 min 46 sec) 
Heartbeat CPU  0 instructions:  318000000 cycles:  689274925 heartbeat IPC: 0.35964 cumulative IPC: 0.37409 (Simulation time: 0 hr 8 min 48 sec) 
Heartbeat CPU  0 instructions:  319000000 cycles:  692034994 heartbeat IPC: 0.36231 cumulative IPC: 0.37403 (Simulation time: 0 hr 8 min 50 sec) 
Heartbeat CPU  0 instructions:  320000000 cycles:  694739164 heartbeat IPC: 0.36980 cumulative IPC: 0.37401 (Simulation time: 0 hr 8 min 52 sec) 
Heartbeat CPU  0 instructions:  321000003 cycles:  697284424 heartbeat IPC: 0.39289 cumulative IPC: 0.37410 (Simulation time: 0 hr 8 min 54 sec) 
Heartbeat CPU  0 instructions:  322000002 cycles:  699784650 heartbeat IPC: 0.39996 cumulative IPC: 0.37420 (Simulation time: 0 hr 8 min 55 sec) 
Heartbeat CPU  0 instructions:  323000000 cycles:  701909631 heartbeat IPC: 0.47059 cumulative IPC: 0.37455 (Simulation time: 0 hr 8 min 57 sec) 
Heartbeat CPU  0 instructions:  324000000 cycles:  704320111 heartbeat IPC: 0.41486 cumulative IPC: 0.37471 (Simulation time: 0 hr 8 min 59 sec) 
Heartbeat CPU  0 instructions:  325000000 cycles:  706961038 heartbeat IPC: 0.37865 cumulative IPC: 0.37473 (Simulation time: 0 hr 9 min 1 sec) 
Heartbeat CPU  0 instructions:  326000000 cycles:  709595027 heartbeat IPC: 0.37965 cumulative IPC: 0.37475 (Simulation time: 0 hr 9 min 2 sec) 
Heartbeat CPU  0 instructions:  327000002 cycles:  712299327 heartbeat IPC: 0.36978 cumulative IPC: 0.37473 (Simulation time: 0 hr 9 min 4 sec) 
Heartbeat CPU  0 instructions:  328000000 cycles:  714941493 heartbeat IPC: 0.37848 cumulative IPC: 0.37474 (Simulation time: 0 hr 9 min 6 sec) 
Heartbeat CPU  0 instructions:  329000001 cycles:  717661070 heartbeat IPC: 0.36770 cumulative IPC: 0.37471 (Simulation time: 0 hr 9 min 8 sec) 
Heartbeat CPU  0 instructions:  330000000 cycles:  720485373 heartbeat IPC: 0.35407 cumulative IPC: 0.37462 (Simulation time: 0 hr 9 min 10 sec) 
Heartbeat CPU  0 instructions:  331000000 cycles:  723316649 heartbeat IPC: 0.35320 cumulative IPC: 0.37452 (Simulation time: 0 hr 9 min 12 sec) 
Heartbeat CPU  0 instructions:  332000000 cycles:  725995187 heartbeat IPC: 0.37334 cumulative IPC: 0.37451 (Simulation time: 0 hr 9 min 14 sec) 
Heartbeat CPU  0 instructions:  333000000 cycles:  728670661 heartbeat IPC: 0.37377 cumulative IPC: 0.37451 (Simulation time: 0 hr 9 min 16 sec) 
Heartbeat CPU  0 instructions:  334000001 cycles:  731428771 heartbeat IPC: 0.36257 cumulative IPC: 0.37446 (Simulation time: 0 hr 9 min 18 sec) 
Heartbeat CPU  0 instructions:  335000003 cycles:  734180616 heartbeat IPC: 0.36339 cumulative IPC: 0.37441 (Simulation time: 0 hr 9 min 20 sec) 
Heartbeat CPU  0 instructions:  336000000 cycles:  736848456 heartbeat IPC: 0.37483 cumulative IPC: 0.37441 (Simulation time: 0 hr 9 min 21 sec) 
Heartbeat CPU  0 instructions:  337000000 cycles:  739569177 heartbeat IPC: 0.36755 cumulative IPC: 0.37438 (Simulation time: 0 hr 9 min 23 sec) 
Heartbeat CPU  0 instructions:  338000000 cycles:  742326327 heartbeat IPC: 0.36269 cumulative IPC: 0.37433 (Simulation time: 0 hr 9 min 25 sec) 
Heartbeat CPU  0 instructions:  339000000 cycles:  744983650 heartbeat IPC: 0.37632 cumulative IPC: 0.37434 (Simulation time: 0 hr 9 min 27 sec) 
Heartbeat CPU  0 instructions:  340000000 cycles:  747731721 heartbeat IPC: 0.36389 cumulative IPC: 0.37429 (Simulation time: 0 hr 9 min 29 sec) 
Heartbeat CPU  0 instructions:  341000002 cycles:  750558516 heartbeat IPC: 0.35376 cumulative IPC: 0.37420 (Simulation time: 0 hr 9 min 31 sec) 
Heartbeat CPU  0 instructions:  342000000 cycles:  753276395 heartbeat IPC: 0.36793 cumulative IPC: 0.37418 (Simulation time: 0 hr 9 min 33 sec) 
Heartbeat CPU  0 instructions:  343000000 cycles:  756064523 heartbeat IPC: 0.35866 cumulative IPC: 0.37411 (Simulation time: 0 hr 9 min 35 sec) 
Heartbeat CPU  0 instructions:  344000000 cycles:  758794863 heartbeat IPC: 0.36625 cumulative IPC: 0.37408 (Simulation time: 0 hr 9 min 37 sec) 
Heartbeat CPU  0 instructions:  345000000 cycles:  761350255 heartbeat IPC: 0.39133 cumulative IPC: 0.37415 (Simulation time: 0 hr 9 min 38 sec) 
Heartbeat CPU  0 instructions:  346000001 cycles:  763949977 heartbeat IPC: 0.38466 cumulative IPC: 0.37419 (Simulation time: 0 hr 9 min 40 sec) 
Heartbeat CPU  0 instructions:  347000000 cycles:  766019075 heartbeat IPC: 0.48330 cumulative IPC: 0.37453 (Simulation time: 0 hr 9 min 42 sec) 
Heartbeat CPU  0 instructions:  348000000 cycles:  768292553 heartbeat IPC: 0.43985 cumulative IPC: 0.37475 (Simulation time: 0 hr 9 min 44 sec) 
Heartbeat CPU  0 instructions:  349000003 cycles:  770989582 heartbeat IPC: 0.37078 cumulative IPC: 0.37474 (Simulation time: 0 hr 9 min 46 sec) 
Heartbeat CPU  0 instructions:  350000002 cycles:  773678431 heartbeat IPC: 0.37191 cumulative IPC: 0.37473 (Simulation time: 0 hr 9 min 48 sec) 
Heartbeat CPU  0 instructions:  351000001 cycles:  776318977 heartbeat IPC: 0.37871 cumulative IPC: 0.37474 (Simulation time: 0 hr 9 min 49 sec) 
Heartbeat CPU  0 instructions:  352000000 cycles:  779048129 heartbeat IPC: 0.36641 cumulative IPC: 0.37471 (Simulation time: 0 hr 9 min 51 sec) 
Heartbeat CPU  0 instructions:  353000000 cycles:  781876818 heartbeat IPC: 0.35352 cumulative IPC: 0.37462 (Simulation time: 0 hr 9 min 53 sec) 
Heartbeat CPU  0 instructions:  354000001 cycles:  784629481 heartbeat IPC: 0.36328 cumulative IPC: 0.37457 (Simulation time: 0 hr 9 min 55 sec) 
Heartbeat CPU  0 instructions:  355000002 cycles:  787349536 heartbeat IPC: 0.36764 cumulative IPC: 0.37455 (Simulation time: 0 hr 9 min 57 sec) 
Heartbeat CPU  0 instructions:  356000000 cycles:  790003823 heartbeat IPC: 0.37675 cumulative IPC: 0.37455 (Simulation time: 0 hr 9 min 59 sec) 
Heartbeat CPU  0 instructions:  357000000 cycles:  792753408 heartbeat IPC: 0.36369 cumulative IPC: 0.37451 (Simulation time: 0 hr 10 min 1 sec) 
Heartbeat CPU  0 instructions:  358000000 cycles:  795411830 heartbeat IPC: 0.37616 cumulative IPC: 0.37452 (Simulation time: 0 hr 10 min 3 sec) 
Heartbeat CPU  0 instructions:  359000001 cycles:  798107992 heartbeat IPC: 0.37090 cumulative IPC: 0.37450 (Simulation time: 0 hr 10 min 4 sec) 
Heartbeat CPU  0 instructions:  360000000 cycles:  800870205 heartbeat IPC: 0.36203 cumulative IPC: 0.37445 (Simulation time: 0 hr 10 min 6 sec) 
Heartbeat CPU  0 instructions:  361000002 cycles:  803536347 heartbeat IPC: 0.37507 cumulative IPC: 0.37446 (Simulation time: 0 hr 10 min 8 sec) 
Heartbeat CPU  0 instructions:  362000000 cycles:  806321891 heartbeat IPC: 0.35900 cumulative IPC: 0.37439 (Simulation time: 0 hr 10 min 10 sec) 
Heartbeat CPU  0 instructions:  363000000 cycles:  809091809 heartbeat IPC: 0.36102 cumulative IPC: 0.37434 (Simulation time: 0 hr 10 min 12 sec) 
Heartbeat CPU  0 instructions:  364000000 cycles:  811841502 heartbeat IPC: 0.36368 cumulative IPC: 0.37430 (Simulation time: 0 hr 10 min 14 sec) 
Heartbeat CPU  0 instructions:  365000001 cycles:  814598163 heartbeat IPC: 0.36276 cumulative IPC: 0.37426 (Simulation time: 0 hr 10 min 16 sec) 
Heartbeat CPU  0 instructions:  366000000 cycles:  817347902 heartbeat IPC: 0.36367 cumulative IPC: 0.37421 (Simulation time: 0 hr 10 min 18 sec) 
Heartbeat CPU  0 instructions:  367000000 cycles:  819910395 heartbeat IPC: 0.39024 cumulative IPC: 0.37427 (Simulation time: 0 hr 10 min 20 sec) 
Heartbeat CPU  0 instructions:  368000000 cycles:  822497086 heartbeat IPC: 0.38659 cumulative IPC: 0.37432 (Simulation time: 0 hr 10 min 22 sec) 
Heartbeat CPU  0 instructions:  369000000 cycles:  824577975 heartbeat IPC: 0.48056 cumulative IPC: 0.37462 (Simulation time: 0 hr 10 min 23 sec) 
Heartbeat CPU  0 instructions:  370000000 cycles:  826810749 heartbeat IPC: 0.44787 cumulative IPC: 0.37485 (Simulation time: 0 hr 10 min 25 sec) 
Heartbeat CPU  0 instructions:  371000000 cycles:  829465270 heartbeat IPC: 0.37672 cumulative IPC: 0.37486 (Simulation time: 0 hr 10 min 27 sec) 
Heartbeat CPU  0 instructions:  372000000 cycles:  832331314 heartbeat IPC: 0.34891 cumulative IPC: 0.37476 (Simulation time: 0 hr 10 min 29 sec) 
Heartbeat CPU  0 instructions:  373000000 cycles:  835057475 heartbeat IPC: 0.36682 cumulative IPC: 0.37473 (Simulation time: 0 hr 10 min 31 sec) 
Heartbeat CPU  0 instructions:  374000003 cycles:  837746810 heartbeat IPC: 0.37184 cumulative IPC: 0.37472 (Simulation time: 0 hr 10 min 32 sec) 
Heartbeat CPU  0 instructions:  375000000 cycles:  840402235 heartbeat IPC: 0.37659 cumulative IPC: 0.37472 (Simulation time: 0 hr 10 min 34 sec) 
Heartbeat CPU  0 instructions:  376000000 cycles:  843172862 heartbeat IPC: 0.36093 cumulative IPC: 0.37467 (Simulation time: 0 hr 10 min 36 sec) 
Heartbeat CPU  0 instructions:  377000003 cycles:  845843766 heartbeat IPC: 0.37441 cumulative IPC: 0.37467 (Simulation time: 0 hr 10 min 38 sec) 
Heartbeat CPU  0 instructions:  378000000 cycles:  848540412 heartbeat IPC: 0.37083 cumulative IPC: 0.37466 (Simulation time: 0 hr 10 min 40 sec) 
Heartbeat CPU  0 instructions:  379000002 cycles:  851327806 heartbeat IPC: 0.35876 cumulative IPC: 0.37460 (Simulation time: 0 hr 10 min 42 sec) 
Heartbeat CPU  0 instructions:  380000000 cycles:  854014205 heartbeat IPC: 0.37224 cumulative IPC: 0.37459 (Simulation time: 0 hr 10 min 44 sec) 
Heartbeat CPU  0 instructions:  381000000 cycles:  856821613 heartbeat IPC: 0.35620 cumulative IPC: 0.37452 (Simulation time: 0 hr 10 min 46 sec) 
Heartbeat CPU  0 instructions:  382000001 cycles:  859557105 heartbeat IPC: 0.36557 cumulative IPC: 0.37449 (Simulation time: 0 hr 10 min 47 sec) 
Heartbeat CPU  0 instructions:  383000002 cycles:  862230132 heartbeat IPC: 0.37411 cumulative IPC: 0.37449 (Simulation time: 0 hr 10 min 49 sec) 
Heartbeat CPU  0 instructions:  384000000 cycles:  864332497 heartbeat IPC: 0.47565 cumulative IPC: 0.37477 (Simulation time: 0 hr 10 min 51 sec) 
Heartbeat CPU  0 instructions:  385000000 cycles:  866445658 heartbeat IPC: 0.47322 cumulative IPC: 0.37504 (Simulation time: 0 hr 10 min 53 sec) 
Heartbeat CPU  0 instructions:  386000002 cycles:  869184533 heartbeat IPC: 0.36511 cumulative IPC: 0.37500 (Simulation time: 0 hr 10 min 54 sec) 
Heartbeat CPU  0 instructions:  387000001 cycles:  871818972 heartbeat IPC: 0.37959 cumulative IPC: 0.37502 (Simulation time: 0 hr 10 min 56 sec) 
Heartbeat CPU  0 instructions:  388000000 cycles:  874561904 heartbeat IPC: 0.36457 cumulative IPC: 0.37498 (Simulation time: 0 hr 10 min 58 sec) 
Heartbeat CPU  0 instructions:  389000000 cycles:  877266151 heartbeat IPC: 0.36979 cumulative IPC: 0.37496 (Simulation time: 0 hr 11 min 0 sec) 
Heartbeat CPU  0 instructions:  390000000 cycles:  879954439 heartbeat IPC: 0.37198 cumulative IPC: 0.37495 (Simulation time: 0 hr 11 min 2 sec) 
Heartbeat CPU  0 instructions:  391000001 cycles:  882664814 heartbeat IPC: 0.36895 cumulative IPC: 0.37493 (Simulation time: 0 hr 11 min 4 sec) 
Heartbeat CPU  0 instructions:  392000000 cycles:  885404690 heartbeat IPC: 0.36498 cumulative IPC: 0.37490 (Simulation time: 0 hr 11 min 6 sec) 
Heartbeat CPU  0 instructions:  393000000 cycles:  888130865 heartbeat IPC: 0.36681 cumulative IPC: 0.37487 (Simulation time: 0 hr 11 min 8 sec) 
Heartbeat CPU  0 instructions:  394000002 cycles:  890749224 heartbeat IPC: 0.38192 cumulative IPC: 0.37489 (Simulation time: 0 hr 11 min 10 sec) 
Heartbeat CPU  0 instructions:  395000002 cycles:  893539299 heartbeat IPC: 0.35841 cumulative IPC: 0.37483 (Simulation time: 0 hr 11 min 11 sec) 
Heartbeat CPU  0 instructions:  396000000 cycles:  896205791 heartbeat IPC: 0.37502 cumulative IPC: 0.37484 (Simulation time: 0 hr 11 min 13 sec) 
Heartbeat CPU  0 instructions:  397000000 cycles:  898934821 heartbeat IPC: 0.36643 cumulative IPC: 0.37481 (Simulation time: 0 hr 11 min 15 sec) 
Heartbeat CPU  0 instructions:  398000001 cycles:  901714190 heartbeat IPC: 0.35979 cumulative IPC: 0.37475 (Simulation time: 0 hr 11 min 17 sec) 
Heartbeat CPU  0 instructions:  399000002 cycles:  904476061 heartbeat IPC: 0.36207 cumulative IPC: 0.37471 (Simulation time: 0 hr 11 min 19 sec) 
Heartbeat CPU  0 instructions:  400000000 cycles:  907280392 heartbeat IPC: 0.35659 cumulative IPC: 0.37465 (Simulation time: 0 hr 11 min 21 sec) 
Heartbeat CPU  0 instructions:  401000000 cycles:  910019366 heartbeat IPC: 0.36510 cumulative IPC: 0.37461 (Simulation time: 0 hr 11 min 23 sec) 
Heartbeat CPU  0 instructions:  402000000 cycles:  912734229 heartbeat IPC: 0.36834 cumulative IPC: 0.37459 (Simulation time: 0 hr 11 min 25 sec) 
Heartbeat CPU  0 instructions:  403000001 cycles:  915265774 heartbeat IPC: 0.39502 cumulative IPC: 0.37466 (Simulation time: 0 hr 11 min 27 sec) 
Heartbeat CPU  0 instructions:  404000000 cycles:  917793065 heartbeat IPC: 0.39568 cumulative IPC: 0.37472 (Simulation time: 0 hr 11 min 28 sec) 
Heartbeat CPU  0 instructions:  405000000 cycles:  919935977 heartbeat IPC: 0.46665 cumulative IPC: 0.37496 (Simulation time: 0 hr 11 min 30 sec) 
Heartbeat CPU  0 instructions:  406000002 cycles:  922317350 heartbeat IPC: 0.41993 cumulative IPC: 0.37510 (Simulation time: 0 hr 11 min 32 sec) 
Heartbeat CPU  0 instructions:  407000000 cycles:  924945630 heartbeat IPC: 0.38048 cumulative IPC: 0.37511 (Simulation time: 0 hr 11 min 34 sec) 
Heartbeat CPU  0 instructions:  408000000 cycles:  927695639 heartbeat IPC: 0.36364 cumulative IPC: 0.37507 (Simulation time: 0 hr 11 min 36 sec) 
Heartbeat CPU  0 instructions:  409000002 cycles:  930579867 heartbeat IPC: 0.34671 cumulative IPC: 0.37498 (Simulation time: 0 hr 11 min 37 sec) 
Heartbeat CPU  0 instructions:  410000001 cycles:  933318729 heartbeat IPC: 0.36511 cumulative IPC: 0.37494 (Simulation time: 0 hr 11 min 39 sec) 
Heartbeat CPU  0 instructions:  411000000 cycles:  936036596 heartbeat IPC: 0.36794 cumulative IPC: 0.37492 (Simulation time: 0 hr 11 min 41 sec) 
Heartbeat CPU  0 instructions:  412000000 cycles:  938671597 heartbeat IPC: 0.37951 cumulative IPC: 0.37493 (Simulation time: 0 hr 11 min 43 sec) 
Heartbeat CPU  0 instructions:  413000000 cycles:  941444050 heartbeat IPC: 0.36069 cumulative IPC: 0.37489 (Simulation time: 0 hr 11 min 45 sec) 
Heartbeat CPU  0 instructions:  414000000 cycles:  944099912 heartbeat IPC: 0.37653 cumulative IPC: 0.37489 (Simulation time: 0 hr 11 min 47 sec) 
Heartbeat CPU  0 instructions:  415000000 cycles:  946812036 heartbeat IPC: 0.36871 cumulative IPC: 0.37487 (Simulation time: 0 hr 11 min 49 sec) 
Heartbeat CPU  0 instructions:  416000000 cycles:  949579207 heartbeat IPC: 0.36138 cumulative IPC: 0.37483 (Simulation time: 0 hr 11 min 51 sec) 
Heartbeat CPU  0 instructions:  417000003 cycles:  952226596 heartbeat IPC: 0.37773 cumulative IPC: 0.37484 (Simulation time: 0 hr 11 min 53 sec) 
Heartbeat CPU  0 instructions:  418000000 cycles:  955005677 heartbeat IPC: 0.35983 cumulative IPC: 0.37479 (Simulation time: 0 hr 11 min 55 sec) 
Heartbeat CPU  0 instructions:  419000000 cycles:  957815320 heartbeat IPC: 0.35592 cumulative IPC: 0.37473 (Simulation time: 0 hr 11 min 56 sec) 
Heartbeat CPU  0 instructions:  420000000 cycles:  960540577 heartbeat IPC: 0.36694 cumulative IPC: 0.37470 (Simulation time: 0 hr 11 min 58 sec) 
Heartbeat CPU  0 instructions:  421000000 cycles:  963335192 heartbeat IPC: 0.35783 cumulative IPC: 0.37465 (Simulation time: 0 hr 12 min 0 sec) 
Heartbeat CPU  0 instructions:  422000001 cycles:  966048995 heartbeat IPC: 0.36849 cumulative IPC: 0.37463 (Simulation time: 0 hr 12 min 2 sec) 
Heartbeat CPU  0 instructions:  423000000 cycles:  968546181 heartbeat IPC: 0.40045 cumulative IPC: 0.37470 (Simulation time: 0 hr 12 min 4 sec) 
Heartbeat CPU  0 instructions:  424000000 cycles:  970518154 heartbeat IPC: 0.50711 cumulative IPC: 0.37500 (Simulation time: 0 hr 12 min 6 sec) 
Heartbeat CPU  0 instructions:  425000001 cycles:  972945949 heartbeat IPC: 0.41190 cumulative IPC: 0.37511 (Simulation time: 0 hr 12 min 7 sec) 
Heartbeat CPU  0 instructions:  426000001 cycles:  975603231 heartbeat IPC: 0.37632 cumulative IPC: 0.37511 (Simulation time: 0 hr 12 min 9 sec) 
Heartbeat CPU  0 instructions:  427000000 cycles:  978326817 heartbeat IPC: 0.36716 cumulative IPC: 0.37509 (Simulation time: 0 hr 12 min 11 sec) 
Heartbeat CPU  0 instructions:  428000000 cycles:  981173391 heartbeat IPC: 0.35130 cumulative IPC: 0.37501 (Simulation time: 0 hr 12 min 13 sec) 
Heartbeat CPU  0 instructions:  429000001 cycles:  983976736 heartbeat IPC: 0.35672 cumulative IPC: 0.37495 (Simulation time: 0 hr 12 min 15 sec) 
Heartbeat CPU  0 instructions:  430000001 cycles:  986691499 heartbeat IPC: 0.36836 cumulative IPC: 0.37493 (Simulation time: 0 hr 12 min 17 sec) 
Heartbeat CPU  0 instructions:  431000000 cycles:  989379601 heartbeat IPC: 0.37201 cumulative IPC: 0.37492 (Simulation time: 0 hr 12 min 19 sec) 
Heartbeat CPU  0 instructions:  432000000 cycles:  992108114 heartbeat IPC: 0.36650 cumulative IPC: 0.37489 (Simulation time: 0 hr 12 min 21 sec) 
Heartbeat CPU  0 instructions:  433000001 cycles:  994880387 heartbeat IPC: 0.36072 cumulative IPC: 0.37485 (Simulation time: 0 hr 12 min 23 sec) 
Heartbeat CPU  0 instructions:  434000001 cycles:  997537306 heartbeat IPC: 0.37638 cumulative IPC: 0.37485 (Simulation time: 0 hr 12 min 24 sec) 
Heartbeat CPU  0 instructions:  435000000 cycles: 1000252826 heartbeat IPC: 0.36825 cumulative IPC: 0.37483 (Simulation time: 0 hr 12 min 26 sec) 
Heartbeat CPU  0 instructions:  436000000 cycles: 1003019340 heartbeat IPC: 0.36147 cumulative IPC: 0.37479 (Simulation time: 0 hr 12 min 28 sec) 
Heartbeat CPU  0 instructions:  437000000 cycles: 1005684070 heartbeat IPC: 0.37527 cumulative IPC: 0.37479 (Simulation time: 0 hr 12 min 30 sec) 
Heartbeat CPU  0 instructions:  438000000 cycles: 1008470565 heartbeat IPC: 0.35887 cumulative IPC: 0.37475 (Simulation time: 0 hr 12 min 32 sec) 
Heartbeat CPU  0 instructions:  439000003 cycles: 1011243808 heartbeat IPC: 0.36059 cumulative IPC: 0.37470 (Simulation time: 0 hr 12 min 34 sec) 
Heartbeat CPU  0 instructions:  440000000 cycles: 1013991711 heartbeat IPC: 0.36391 cumulative IPC: 0.37467 (Simulation time: 0 hr 12 min 36 sec) 
Heartbeat CPU  0 instructions:  441000001 cycles: 1016744416 heartbeat IPC: 0.36328 cumulative IPC: 0.37464 (Simulation time: 0 hr 12 min 38 sec) 
Heartbeat CPU  0 instructions:  442000000 cycles: 1019467915 heartbeat IPC: 0.36717 cumulative IPC: 0.37461 (Simulation time: 0 hr 12 min 39 sec) 
Heartbeat CPU  0 instructions:  443000002 cycles: 1022033917 heartbeat IPC: 0.38971 cumulative IPC: 0.37466 (Simulation time: 0 hr 12 min 41 sec) 
Heartbeat CPU  0 instructions:  444000000 cycles: 1024680912 heartbeat IPC: 0.37779 cumulative IPC: 0.37466 (Simulation time: 0 hr 12 min 43 sec) 
Heartbeat CPU  0 instructions:  445000000 cycles: 1027480208 heartbeat IPC: 0.35723 cumulative IPC: 0.37461 (Simulation time: 0 hr 12 min 45 sec) 
Heartbeat CPU  0 instructions:  446000003 cycles: 1030242324 heartbeat IPC: 0.36204 cumulative IPC: 0.37457 (Simulation time: 0 hr 12 min 47 sec) 
Heartbeat CPU  0 instructions:  447000002 cycles: 1032990952 heartbeat IPC: 0.36382 cumulative IPC: 0.37454 (Simulation time: 0 hr 12 min 49 sec) 
Heartbeat CPU  0 instructions:  448000000 cycles: 1035402432 heartbeat IPC: 0.41468 cumulative IPC: 0.37465 (Simulation time: 0 hr 12 min 51 sec) 
Heartbeat CPU  0 instructions:  449000000 cycles: 1037516361 heartbeat IPC: 0.47305 cumulative IPC: 0.37487 (Simulation time: 0 hr 12 min 52 sec) 
Heartbeat CPU  0 instructions:  450000000 cycles: 1040187316 heartbeat IPC: 0.37440 cumulative IPC: 0.37487 (Simulation time: 0 hr 12 min 54 sec) 
Heartbeat CPU  0 instructions:  451000000 cycles: 1042909495 heartbeat IPC: 0.36735 cumulative IPC: 0.37485 (Simulation time: 0 hr 12 min 56 sec) 
Heartbeat CPU  0 instructions:  452000000 cycles: 1045608448 heartbeat IPC: 0.37051 cumulative IPC: 0.37483 (Simulation time: 0 hr 12 min 58 sec) 
Heartbeat CPU  0 instructions:  453000000 cycles: 1048274404 heartbeat IPC: 0.37510 cumulative IPC: 0.37483 (Simulation time: 0 hr 13 min 0 sec) 
Heartbeat CPU  0 instructions:  454000001 cycles: 1051005589 heartbeat IPC: 0.36614 cumulative IPC: 0.37481 (Simulation time: 0 hr 13 min 2 sec) 
Heartbeat CPU  0 instructions:  455000000 cycles: 1053740569 heartbeat IPC: 0.36563 cumulative IPC: 0.37478 (Simulation time: 0 hr 13 min 4 sec) 
Heartbeat CPU  0 instructions:  456000000 cycles: 1056401197 heartbeat IPC: 0.37585 cumulative IPC: 0.37479 (Simulation time: 0 hr 13 min 6 sec) 
Heartbeat CPU  0 instructions:  457000003 cycles: 1059153351 heartbeat IPC: 0.36335 cumulative IPC: 0.37475 (Simulation time: 0 hr 13 min 7 sec) 
Heartbeat CPU  0 instructions:  458000003 cycles: 1061868960 heartbeat IPC: 0.36824 cumulative IPC: 0.37473 (Simulation time: 0 hr 13 min 9 sec) 
Heartbeat CPU  0 instructions:  459000001 cycles: 1064675059 heartbeat IPC: 0.35637 cumulative IPC: 0.37468 (Simulation time: 0 hr 13 min 11 sec) 
Heartbeat CPU  0 instructions:  460000000 cycles: 1067403742 heartbeat IPC: 0.36648 cumulative IPC: 0.37466 (Simulation time: 0 hr 13 min 13 sec) 
Heartbeat CPU  0 instructions:  461000002 cycles: 1070110245 heartbeat IPC: 0.36948 cumulative IPC: 0.37464 (Simulation time: 0 hr 13 min 15 sec) 
Heartbeat CPU  0 instructions:  462000003 cycles: 1072726803 heartbeat IPC: 0.38218 cumulative IPC: 0.37466 (Simulation time: 0 hr 13 min 17 sec) 
Heartbeat CPU  0 instructions:  463000001 cycles: 1074714031 heartbeat IPC: 0.50321 cumulative IPC: 0.37493 (Simulation time: 0 hr 13 min 18 sec) 
Heartbeat CPU  0 instructions:  464000000 cycles: 1077628469 heartbeat IPC: 0.34312 cumulative IPC: 0.37483 (Simulation time: 0 hr 13 min 20 sec) 
Heartbeat CPU  0 instructions:  465000001 cycles: 1080447045 heartbeat IPC: 0.35479 cumulative IPC: 0.37477 (Simulation time: 0 hr 13 min 22 sec) 
Heartbeat CPU  0 instructions:  466000000 cycles: 1082900815 heartbeat IPC: 0.40754 cumulative IPC: 0.37486 (Simulation time: 0 hr 13 min 24 sec) 
Heartbeat CPU  0 instructions:  467000000 cycles: 1085537985 heartbeat IPC: 0.37919 cumulative IPC: 0.37487 (Simulation time: 0 hr 13 min 26 sec) 
Heartbeat CPU  0 instructions:  468000000 cycles: 1088254565 heartbeat IPC: 0.36811 cumulative IPC: 0.37485 (Simulation time: 0 hr 13 min 28 sec) 
Heartbeat CPU  0 instructions:  469000001 cycles: 1090951920 heartbeat IPC: 0.37073 cumulative IPC: 0.37484 (Simulation time: 0 hr 13 min 29 sec) 
Heartbeat CPU  0 instructions:  470000001 cycles: 1093657241 heartbeat IPC: 0.36964 cumulative IPC: 0.37482 (Simulation time: 0 hr 13 min 31 sec) 
Heartbeat CPU  0 instructions:  471000000 cycles: 1096279850 heartbeat IPC: 0.38130 cumulative IPC: 0.37484 (Simulation time: 0 hr 13 min 33 sec) 
Heartbeat CPU  0 instructions:  472000000 cycles: 1099054809 heartbeat IPC: 0.36037 cumulative IPC: 0.37480 (Simulation time: 0 hr 13 min 35 sec) 
Heartbeat CPU  0 instructions:  473000002 cycles: 1101728203 heartbeat IPC: 0.37406 cumulative IPC: 0.37480 (Simulation time: 0 hr 13 min 37 sec) 
Heartbeat CPU  0 instructions:  474000001 cycles: 1104450036 heartbeat IPC: 0.36740 cumulative IPC: 0.37478 (Simulation time: 0 hr 13 min 39 sec) 
Heartbeat CPU  0 instructions:  475000002 cycles: 1107220075 heartbeat IPC: 0.36101 cumulative IPC: 0.37474 (Simulation time: 0 hr 13 min 41 sec) 
Heartbeat CPU  0 instructions:  476000000 cycles: 1109937062 heartbeat IPC: 0.36805 cumulative IPC: 0.37472 (Simulation time: 0 hr 13 min 43 sec) 
Heartbeat CPU  0 instructions:  477000001 cycles: 1112727267 heartbeat IPC: 0.35840 cumulative IPC: 0.37468 (Simulation time: 0 hr 13 min 44 sec) 
Heartbeat CPU  0 instructions:  478000001 cycles: 1115439580 heartbeat IPC: 0.36869 cumulative IPC: 0.37466 (Simulation time: 0 hr 13 min 46 sec) 
Heartbeat CPU  0 instructions:  479000002 cycles: 1118130913 heartbeat IPC: 0.37156 cumulative IPC: 0.37465 (Simulation time: 0 hr 13 min 48 sec) 
Heartbeat CPU  0 instructions:  480000000 cycles: 1120918125 heartbeat IPC: 0.35878 cumulative IPC: 0.37461 (Simulation time: 0 hr 13 min 50 sec) 
Heartbeat CPU  0 instructions:  481000000 cycles: 1123724656 heartbeat IPC: 0.35631 cumulative IPC: 0.37456 (Simulation time: 0 hr 13 min 52 sec) 
Heartbeat CPU  0 instructions:  482000000 cycles: 1125678905 heartbeat IPC: 0.51171 cumulative IPC: 0.37482 (Simulation time: 0 hr 13 min 54 sec) 
Heartbeat CPU  0 instructions:  483000003 cycles: 1128495545 heartbeat IPC: 0.35503 cumulative IPC: 0.37477 (Simulation time: 0 hr 13 min 55 sec) 
Heartbeat CPU  0 instructions:  484000000 cycles: 1131263197 heartbeat IPC: 0.36132 cumulative IPC: 0.37473 (Simulation time: 0 hr 13 min 57 sec) 
Heartbeat CPU  0 instructions:  485000001 cycles: 1134103745 heartbeat IPC: 0.35205 cumulative IPC: 0.37467 (Simulation time: 0 hr 13 min 59 sec) 
Heartbeat CPU  0 instructions:  486000000 cycles: 1136816189 heartbeat IPC: 0.36867 cumulative IPC: 0.37465 (Simulation time: 0 hr 14 min 1 sec) 
Heartbeat CPU  0 instructions:  487000002 cycles: 1139218818 heartbeat IPC: 0.41621 cumulative IPC: 0.37475 (Simulation time: 0 hr 14 min 3 sec) 
Heartbeat CPU  0 instructions:  488000000 cycles: 1142047478 heartbeat IPC: 0.35352 cumulative IPC: 0.37469 (Simulation time: 0 hr 14 min 5 sec) 
Heartbeat CPU  0 instructions:  489000001 cycles: 1144862110 heartbeat IPC: 0.35529 cumulative IPC: 0.37464 (Simulation time: 0 hr 14 min 7 sec) 
Heartbeat CPU  0 instructions:  490000001 cycles: 1147515562 heartbeat IPC: 0.37687 cumulative IPC: 0.37464 (Simulation time: 0 hr 14 min 9 sec) 
Heartbeat CPU  0 instructions:  491000001 cycles: 1150217288 heartbeat IPC: 0.37013 cumulative IPC: 0.37463 (Simulation time: 0 hr 14 min 10 sec) 
Heartbeat CPU  0 instructions:  492000000 cycles: 1152903189 heartbeat IPC: 0.37231 cumulative IPC: 0.37463 (Simulation time: 0 hr 14 min 12 sec) 
Heartbeat CPU  0 instructions:  493000000 cycles: 1155680786 heartbeat IPC: 0.36002 cumulative IPC: 0.37459 (Simulation time: 0 hr 14 min 14 sec) 
Heartbeat CPU  0 instructions:  494000000 cycles: 1158400077 heartbeat IPC: 0.36774 cumulative IPC: 0.37457 (Simulation time: 0 hr 14 min 16 sec) 
Heartbeat CPU  0 instructions:  495000000 cycles: 1161217284 heartbeat IPC: 0.35496 cumulative IPC: 0.37452 (Simulation time: 0 hr 14 min 18 sec) 
Heartbeat CPU  0 instructions:  496000000 cycles: 1163937030 heartbeat IPC: 0.36768 cumulative IPC: 0.37450 (Simulation time: 0 hr 14 min 20 sec) 
Heartbeat CPU  0 instructions:  497000000 cycles: 1166637437 heartbeat IPC: 0.37031 cumulative IPC: 0.37449 (Simulation time: 0 hr 14 min 22 sec) 
Heartbeat CPU  0 instructions:  498000001 cycles: 1168888228 heartbeat IPC: 0.44429 cumulative IPC: 0.37464 (Simulation time: 0 hr 14 min 23 sec) 
Heartbeat CPU  0 instructions:  499000001 cycles: 1171261435 heartbeat IPC: 0.42137 cumulative IPC: 0.37474 (Simulation time: 0 hr 14 min 25 sec) 
Heartbeat CPU  0 instructions:  500000000 cycles: 1173662228 heartbeat IPC: 0.41653 cumulative IPC: 0.37483 (Simulation time: 0 hr 14 min 27 sec) 
Heartbeat CPU  0 instructions:  501000001 cycles: 1176482415 heartbeat IPC: 0.35459 cumulative IPC: 0.37478 (Simulation time: 0 hr 14 min 29 sec) 
Heartbeat CPU  0 instructions:  502000003 cycles: 1179295306 heartbeat IPC: 0.35551 cumulative IPC: 0.37473 (Simulation time: 0 hr 14 min 31 sec) 
Heartbeat CPU  0 instructions:  503000000 cycles: 1182037909 heartbeat IPC: 0.36462 cumulative IPC: 0.37471 (Simulation time: 0 hr 14 min 33 sec) 
Heartbeat CPU  0 instructions:  504000000 cycles: 1183733879 heartbeat IPC: 0.58963 cumulative IPC: 0.37504 (Simulation time: 0 hr 14 min 36 sec) 
Heartbeat CPU  0 instructions:  505000003 cycles: 1191697173 heartbeat IPC: 0.12558 cumulative IPC: 0.37321 (Simulation time: 0 hr 14 min 42 sec) 
Heartbeat CPU  0 instructions:  506000003 cycles: 1199713940 heartbeat IPC: 0.12474 cumulative IPC: 0.37139 (Simulation time: 0 hr 14 min 48 sec) 
Heartbeat CPU  0 instructions:  507000003 cycles: 1208244200 heartbeat IPC: 0.11723 cumulative IPC: 0.36942 (Simulation time: 0 hr 14 min 54 sec) 
Heartbeat CPU  0 instructions:  508000000 cycles: 1222195980 heartbeat IPC: 0.07168 cumulative IPC: 0.36570 (Simulation time: 0 hr 15 min 3 sec) 
Heartbeat CPU  0 instructions:  509000003 cycles: 1239371701 heartbeat IPC: 0.05822 cumulative IPC: 0.36104 (Simulation time: 0 hr 15 min 14 sec) 
Heartbeat CPU  0 instructions:  510000003 cycles: 1257334058 heartbeat IPC: 0.05567 cumulative IPC: 0.35627 (Simulation time: 0 hr 15 min 25 sec) 
Heartbeat CPU  0 instructions:  511000001 cycles: 1277586841 heartbeat IPC: 0.04938 cumulative IPC: 0.35096 (Simulation time: 0 hr 15 min 37 sec) 
Heartbeat CPU  0 instructions:  512000000 cycles: 1303932293 heartbeat IPC: 0.03796 cumulative IPC: 0.34408 (Simulation time: 0 hr 15 min 52 sec) 
Heartbeat CPU  0 instructions:  513000003 cycles: 1330754930 heartbeat IPC: 0.03728 cumulative IPC: 0.33736 (Simulation time: 0 hr 16 min 8 sec) 
Heartbeat CPU  0 instructions:  514000002 cycles: 1343935474 heartbeat IPC: 0.07587 cumulative IPC: 0.33457 (Simulation time: 0 hr 16 min 17 sec) 
Heartbeat CPU  0 instructions:  515000002 cycles: 1352916404 heartbeat IPC: 0.11135 cumulative IPC: 0.33296 (Simulation time: 0 hr 16 min 23 sec) 
Heartbeat CPU  0 instructions:  516000000 cycles: 1361823060 heartbeat IPC: 0.11228 cumulative IPC: 0.33140 (Simulation time: 0 hr 16 min 29 sec) 
Heartbeat CPU  0 instructions:  517000002 cycles: 1370831317 heartbeat IPC: 0.11101 cumulative IPC: 0.32983 (Simulation time: 0 hr 16 min 36 sec) 
Heartbeat CPU  0 instructions:  518000002 cycles: 1388330108 heartbeat IPC: 0.05715 cumulative IPC: 0.32610 (Simulation time: 0 hr 16 min 47 sec) 
Heartbeat CPU  0 instructions:  519000002 cycles: 1406571744 heartbeat IPC: 0.05482 cumulative IPC: 0.32230 (Simulation time: 0 hr 16 min 58 sec) 
Heartbeat CPU  0 instructions:  520000000 cycles: 1424370676 heartbeat IPC: 0.05618 cumulative IPC: 0.31870 (Simulation time: 0 hr 17 min 9 sec) 
Heartbeat CPU  0 instructions:  521000000 cycles: 1447976091 heartbeat IPC: 0.04236 cumulative IPC: 0.31384 (Simulation time: 0 hr 17 min 23 sec) 
Heartbeat CPU  0 instructions:  522000002 cycles: 1475043033 heartbeat IPC: 0.03695 cumulative IPC: 0.30836 (Simulation time: 0 hr 17 min 39 sec) 
Heartbeat CPU  0 instructions:  523000000 cycles: 1497650053 heartbeat IPC: 0.04423 cumulative IPC: 0.30407 (Simulation time: 0 hr 17 min 53 sec) 
Heartbeat CPU  0 instructions:  524000000 cycles: 1501499074 heartbeat IPC: 0.25981 cumulative IPC: 0.30395 (Simulation time: 0 hr 17 min 56 sec) 
Heartbeat CPU  0 instructions:  525000002 cycles: 1504114091 heartbeat IPC: 0.38241 cumulative IPC: 0.30410 (Simulation time: 0 hr 17 min 57 sec) 
Heartbeat CPU  0 instructions:  526000000 cycles: 1506460132 heartbeat IPC: 0.42625 cumulative IPC: 0.30430 (Simulation time: 0 hr 17 min 59 sec) 
Heartbeat CPU  0 instructions:  527000001 cycles: 1509264236 heartbeat IPC: 0.35662 cumulative IPC: 0.30440 (Simulation time: 0 hr 18 min 1 sec) 
Heartbeat CPU  0 instructions:  528000000 cycles: 1511545872 heartbeat IPC: 0.43828 cumulative IPC: 0.30462 (Simulation time: 0 hr 18 min 3 sec) 
Heartbeat CPU  0 instructions:  529000000 cycles: 1513510126 heartbeat IPC: 0.50910 cumulative IPC: 0.30491 (Simulation time: 0 hr 18 min 4 sec) 
Heartbeat CPU  0 instructions:  530000003 cycles: 1516333652 heartbeat IPC: 0.35417 cumulative IPC: 0.30501 (Simulation time: 0 hr 18 min 6 sec) 
Heartbeat CPU  0 instructions:  531000001 cycles: 1518755232 heartbeat IPC: 0.41295 cumulative IPC: 0.30519 (Simulation time: 0 hr 18 min 8 sec) 
Heartbeat CPU  0 instructions:  532000000 cycles: 1521222221 heartbeat IPC: 0.40535 cumulative IPC: 0.30537 (Simulation time: 0 hr 18 min 10 sec) 
Heartbeat CPU  0 instructions:  533000002 cycles: 1523975895 heartbeat IPC: 0.36315 cumulative IPC: 0.30548 (Simulation time: 0 hr 18 min 12 sec) 
Heartbeat CPU  0 instructions:  534000000 cycles: 1526342072 heartbeat IPC: 0.42262 cumulative IPC: 0.30567 (Simulation time: 0 hr 18 min 14 sec) 
Heartbeat CPU  0 instructions:  535000000 cycles: 1528441360 heartbeat IPC: 0.47635 cumulative IPC: 0.30593 (Simulation time: 0 hr 18 min 16 sec) 
Heartbeat CPU  0 instructions:  536000000 cycles: 1531026677 heartbeat IPC: 0.38680 cumulative IPC: 0.30607 (Simulation time: 0 hr 18 min 18 sec) 
Heartbeat CPU  0 instructions:  537000001 cycles: 1533409504 heartbeat IPC: 0.41967 cumulative IPC: 0.30626 (Simulation time: 0 hr 18 min 19 sec) 
Heartbeat CPU  0 instructions:  538000001 cycles: 1535945128 heartbeat IPC: 0.39438 cumulative IPC: 0.30642 (Simulation time: 0 hr 18 min 21 sec) 
Heartbeat CPU  0 instructions:  539000000 cycles: 1538457764 heartbeat IPC: 0.39799 cumulative IPC: 0.30658 (Simulation time: 0 hr 18 min 23 sec) 
Heartbeat CPU  0 instructions:  540000000 cycles: 1541119248 heartbeat IPC: 0.37573 cumulative IPC: 0.30671 (Simulation time: 0 hr 18 min 25 sec) 
Heartbeat CPU  0 instructions:  541000001 cycles: 1543621444 heartbeat IPC: 0.39965 cumulative IPC: 0.30687 (Simulation time: 0 hr 18 min 27 sec) 
Heartbeat CPU  0 instructions:  542000002 cycles: 1545973870 heartbeat IPC: 0.42509 cumulative IPC: 0.30706 (Simulation time: 0 hr 18 min 29 sec) 
Heartbeat CPU  0 instructions:  543000003 cycles: 1548567692 heartbeat IPC: 0.38553 cumulative IPC: 0.30720 (Simulation time: 0 hr 18 min 31 sec) 
Heartbeat CPU  0 instructions:  544000000 cycles: 1551123600 heartbeat IPC: 0.39125 cumulative IPC: 0.30735 (Simulation time: 0 hr 18 min 33 sec) 
Heartbeat CPU  0 instructions:  545000000 cycles: 1553334434 heartbeat IPC: 0.45232 cumulative IPC: 0.30757 (Simulation time: 0 hr 18 min 34 sec) 
Heartbeat CPU  0 instructions:  546000000 cycles: 1555655677 heartbeat IPC: 0.43080 cumulative IPC: 0.30777 (Simulation time: 0 hr 18 min 36 sec) 
Heartbeat CPU  0 instructions:  547000000 cycles: 1558115508 heartbeat IPC: 0.40653 cumulative IPC: 0.30794 (Simulation time: 0 hr 18 min 38 sec) 
Heartbeat CPU  0 instructions:  548000000 cycles: 1560791269 heartbeat IPC: 0.37373 cumulative IPC: 0.30806 (Simulation time: 0 hr 18 min 40 sec) 
Heartbeat CPU  0 instructions:  549000000 cycles: 1563393050 heartbeat IPC: 0.38435 cumulative IPC: 0.30820 (Simulation time: 0 hr 18 min 42 sec) 
Heartbeat CPU  0 instructions:  550000001 cycles: 1566010702 heartbeat IPC: 0.38202 cumulative IPC: 0.30833 (Simulation time: 0 hr 18 min 43 sec) 
Heartbeat CPU  0 instructions:  551000001 cycles: 1568665671 heartbeat IPC: 0.37665 cumulative IPC: 0.30845 (Simulation time: 0 hr 18 min 45 sec) 
Heartbeat CPU  0 instructions:  552000000 cycles: 1571310993 heartbeat IPC: 0.37803 cumulative IPC: 0.30858 (Simulation time: 0 hr 18 min 47 sec) 
Heartbeat CPU  0 instructions:  553000002 cycles: 1573883019 heartbeat IPC: 0.38880 cumulative IPC: 0.30872 (Simulation time: 0 hr 18 min 49 sec) 
Heartbeat CPU  0 instructions:  554000000 cycles: 1576550481 heartbeat IPC: 0.37489 cumulative IPC: 0.30884 (Simulation time: 0 hr 18 min 51 sec) 
Heartbeat CPU  0 instructions:  555000000 cycles: 1579314186 heartbeat IPC: 0.36183 cumulative IPC: 0.30894 (Simulation time: 0 hr 18 min 53 sec) 
Heartbeat CPU  0 instructions:  556000000 cycles: 1581835615 heartbeat IPC: 0.39660 cumulative IPC: 0.30909 (Simulation time: 0 hr 18 min 55 sec) 
Heartbeat CPU  0 instructions:  557000000 cycles: 1584573195 heartbeat IPC: 0.36529 cumulative IPC: 0.30919 (Simulation time: 0 hr 18 min 57 sec) 
Heartbeat CPU  0 instructions:  558000000 cycles: 1587210825 heartbeat IPC: 0.37913 cumulative IPC: 0.30932 (Simulation time: 0 hr 18 min 59 sec) 
Heartbeat CPU  0 instructions:  559000000 cycles: 1589952742 heartbeat IPC: 0.36471 cumulative IPC: 0.30942 (Simulation time: 0 hr 19 min 1 sec) 
Heartbeat CPU  0 instructions:  560000000 cycles: 1592684611 heartbeat IPC: 0.36605 cumulative IPC: 0.30952 (Simulation time: 0 hr 19 min 2 sec) 
Heartbeat CPU  0 instructions:  561000001 cycles: 1595340040 heartbeat IPC: 0.37659 cumulative IPC: 0.30964 (Simulation time: 0 hr 19 min 4 sec) 
Heartbeat CPU  0 instructions:  562000000 cycles: 1598023460 heartbeat IPC: 0.37266 cumulative IPC: 0.30976 (Simulation time: 0 hr 19 min 6 sec) 
Heartbeat CPU  0 instructions:  563000001 cycles: 1600804399 heartbeat IPC: 0.35959 cumulative IPC: 0.30985 (Simulation time: 0 hr 19 min 8 sec) 
Heartbeat CPU  0 instructions:  564000000 cycles: 1603307927 heartbeat IPC: 0.39944 cumulative IPC: 0.31000 (Simulation time: 0 hr 19 min 10 sec) 
Heartbeat CPU  0 instructions:  565000002 cycles: 1606023568 heartbeat IPC: 0.36824 cumulative IPC: 0.31010 (Simulation time: 0 hr 19 min 12 sec) 
Heartbeat CPU  0 instructions:  566000000 cycles: 1608643452 heartbeat IPC: 0.38170 cumulative IPC: 0.31023 (Simulation time: 0 hr 19 min 14 sec) 
Heartbeat CPU  0 instructions:  567000003 cycles: 1611307634 heartbeat IPC: 0.37535 cumulative IPC: 0.31034 (Simulation time: 0 hr 19 min 16 sec) 
Heartbeat CPU  0 instructions:  568000000 cycles: 1613995302 heartbeat IPC: 0.37207 cumulative IPC: 0.31045 (Simulation time: 0 hr 19 min 18 sec) 
Heartbeat CPU  0 instructions:  569000002 cycles: 1616806878 heartbeat IPC: 0.35567 cumulative IPC: 0.31054 (Simulation time: 0 hr 19 min 20 sec) 
Heartbeat CPU  0 instructions:  570000001 cycles: 1619544658 heartbeat IPC: 0.36526 cumulative IPC: 0.31064 (Simulation time: 0 hr 19 min 21 sec) 
Heartbeat CPU  0 instructions:  571000001 cycles: 1622268926 heartbeat IPC: 0.36707 cumulative IPC: 0.31074 (Simulation time: 0 hr 19 min 23 sec) 
Heartbeat CPU  0 instructions:  572000000 cycles: 1625064974 heartbeat IPC: 0.35765 cumulative IPC: 0.31083 (Simulation time: 0 hr 19 min 25 sec) 
Heartbeat CPU  0 instructions:  573000000 cycles: 1627816791 heartbeat IPC: 0.36340 cumulative IPC: 0.31092 (Simulation time: 0 hr 19 min 27 sec) 
Heartbeat CPU  0 instructions:  574000000 cycles: 1630596256 heartbeat IPC: 0.35978 cumulative IPC: 0.31101 (Simulation time: 0 hr 19 min 29 sec) 
Heartbeat CPU  0 instructions:  575000002 cycles: 1633378190 heartbeat IPC: 0.35946 cumulative IPC: 0.31110 (Simulation time: 0 hr 19 min 31 sec) 
Heartbeat CPU  0 instructions:  576000000 cycles: 1636082380 heartbeat IPC: 0.36980 cumulative IPC: 0.31120 (Simulation time: 0 hr 19 min 33 sec) 
Heartbeat CPU  0 instructions:  577000002 cycles: 1638813305 heartbeat IPC: 0.36618 cumulative IPC: 0.31130 (Simulation time: 0 hr 19 min 35 sec) 
Heartbeat CPU  0 instructions:  578000001 cycles: 1641403737 heartbeat IPC: 0.38604 cumulative IPC: 0.31143 (Simulation time: 0 hr 19 min 37 sec) 
Heartbeat CPU  0 instructions:  579000002 cycles: 1644090810 heartbeat IPC: 0.37215 cumulative IPC: 0.31153 (Simulation time: 0 hr 19 min 39 sec) 
Heartbeat CPU  0 instructions:  580000000 cycles: 1646777379 heartbeat IPC: 0.37222 cumulative IPC: 0.31164 (Simulation time: 0 hr 19 min 41 sec) 
Heartbeat CPU  0 instructions:  581000003 cycles: 1649442406 heartbeat IPC: 0.37523 cumulative IPC: 0.31175 (Simulation time: 0 hr 19 min 43 sec) 
Heartbeat CPU  0 instructions:  582000001 cycles: 1652210368 heartbeat IPC: 0.36128 cumulative IPC: 0.31184 (Simulation time: 0 hr 19 min 45 sec) 
Heartbeat CPU  0 instructions:  583000000 cycles: 1654866064 heartbeat IPC: 0.37655 cumulative IPC: 0.31195 (Simulation time: 0 hr 19 min 46 sec) 
Heartbeat CPU  0 instructions:  584000000 cycles: 1657493325 heartbeat IPC: 0.38062 cumulative IPC: 0.31206 (Simulation time: 0 hr 19 min 48 sec) 
Heartbeat CPU  0 instructions:  585000002 cycles: 1660224175 heartbeat IPC: 0.36619 cumulative IPC: 0.31216 (Simulation time: 0 hr 19 min 50 sec) 
Heartbeat CPU  0 instructions:  586000000 cycles: 1662920845 heartbeat IPC: 0.37083 cumulative IPC: 0.31226 (Simulation time: 0 hr 19 min 52 sec) 
Heartbeat CPU  0 instructions:  587000000 cycles: 1665617944 heartbeat IPC: 0.37077 cumulative IPC: 0.31236 (Simulation time: 0 hr 19 min 54 sec) 
Heartbeat CPU  0 instructions:  588000000 cycles: 1668265301 heartbeat IPC: 0.37774 cumulative IPC: 0.31247 (Simulation time: 0 hr 19 min 56 sec) 
Heartbeat CPU  0 instructions:  589000002 cycles: 1670826807 heartbeat IPC: 0.39040 cumulative IPC: 0.31260 (Simulation time: 0 hr 19 min 58 sec) 
Heartbeat CPU  0 instructions:  590000000 cycles: 1673443890 heartbeat IPC: 0.38210 cumulative IPC: 0.31272 (Simulation time: 0 hr 20 min 0 sec) 
Heartbeat CPU  0 instructions:  591000000 cycles: 1675917921 heartbeat IPC: 0.40420 cumulative IPC: 0.31286 (Simulation time: 0 hr 20 min 1 sec) 
Heartbeat CPU  0 instructions:  592000000 cycles: 1678631432 heartbeat IPC: 0.36853 cumulative IPC: 0.31296 (Simulation time: 0 hr 20 min 3 sec) 
Heartbeat CPU  0 instructions:  593000001 cycles: 1681310128 heartbeat IPC: 0.37332 cumulative IPC: 0.31306 (Simulation time: 0 hr 20 min 5 sec) 
Heartbeat CPU  0 instructions:  594000000 cycles: 1683899887 heartbeat IPC: 0.38614 cumulative IPC: 0.31318 (Simulation time: 0 hr 20 min 7 sec) 
Heartbeat CPU  0 instructions:  595000002 cycles: 1686628866 heartbeat IPC: 0.36644 cumulative IPC: 0.31327 (Simulation time: 0 hr 20 min 9 sec) 
Heartbeat CPU  0 instructions:  596000000 cycles: 1688997377 heartbeat IPC: 0.42221 cumulative IPC: 0.31343 (Simulation time: 0 hr 20 min 11 sec) 
Heartbeat CPU  0 instructions:  597000000 cycles: 1691478318 heartbeat IPC: 0.40307 cumulative IPC: 0.31357 (Simulation time: 0 hr 20 min 13 sec) 
Heartbeat CPU  0 instructions:  598000000 cycles: 1693962525 heartbeat IPC: 0.40254 cumulative IPC: 0.31371 (Simulation time: 0 hr 20 min 14 sec) 
Heartbeat CPU  0 instructions:  599000001 cycles: 1696644991 heartbeat IPC: 0.37279 cumulative IPC: 0.31381 (Simulation time: 0 hr 20 min 16 sec) 
Heartbeat CPU  0 instructions:  600000000 cycles: 1699245599 heartbeat IPC: 0.38453 cumulative IPC: 0.31393 (Simulation time: 0 hr 20 min 18 sec) 
Finished CPU 0 instructions: 500000000 cycles: 1592719839 cumulative IPC: 0.31393 (Simulation time: 0 hr 20 min 18 sec) 

ChampSim completed all CPUs

[ROI Statistics]
Core_0_instructions 500000000
Core_0_cycles 1592719839
Core_0_IPC 0.31393

Core_0_branch_prediction_accuracy 85.44512
Core_0_branch_MPKI 23.17008
Core_0_average_ROB_occupancy_at_mispredict 40.39127

Core_0_L1D_total_access 158205603
Core_0_L1D_total_hit 156138172
Core_0_L1D_total_miss 2067431
Core_0_L1D_loads 90878896
Core_0_L1D_load_hit 90166265
Core_0_L1D_load_miss 712631
Core_0_L1D_RFOs 67326707
Core_0_L1D_RFO_hit 65971907
Core_0_L1D_RFO_miss 1354800
Core_0_L1D_prefetches 0
Core_0_L1D_prefetch_hit 0
Core_0_L1D_prefetch_miss 0
Core_0_L1D_writebacks 0
Core_0_L1D_writeback_hit 0
Core_0_L1D_writeback_miss 0
Core_0_L1D_prefetch_requested 0
Core_0_L1D_prefetch_dropped 0
Core_0_L1D_prefetch_issued 0
Core_0_L1D_prefetch_filled 0
Core_0_L1D_prefetch_useful 0
Core_0_L1D_prefetch_useless 0
Core_0_L1D_prefetch_late 0
Core_0_L1D_average_miss_latency 2482.92767

Core_0_L1D_rq_access 127065427
Core_0_L1D_rq_forward 0
Core_0_L1D_rq_merged 36050819
Core_0_L1D_rq_to_cache 91014157
Core_0_L1D_rq_full 0

Core_0_L1D_wq_access 71549319
Core_0_L1D_wq_forward 451
Core_0_L1D_wq_merged 408892
Core_0_L1D_wq_to_cache 71140427
Core_0_L1D_wq_full 308135284

Core_0_L1D_pq_access 0
Core_0_L1D_pq_forward 0
Core_0_L1D_pq_merged 0
Core_0_L1D_pq_to_cache 0
Core_0_L1D_pq_full 0

Core_0_L1D_acc_epochs 1653845
Core_0_L1D_acc_level_0 1653845
Core_0_L1D_acc_level_1 0
Core_0_L1D_acc_level_2 0
Core_0_L1D_acc_level_3 0
Core_0_L1D_acc_level_4 0
Core_0_L1D_acc_level_5 0
Core_0_L1D_acc_level_6 0
Core_0_L1D_acc_level_7 0
Core_0_L1D_acc_level_8 0
Core_0_L1D_acc_level_9 0

Core_0_L1I_total_access 97995223
Core_0_L1I_total_hit 96375662
Core_0_L1I_total_miss 1619561
Core_0_L1I_loads 97995223
Core_0_L1I_load_hit 96375662
Core_0_L1I_load_miss 1619561
Core_0_L1I_RFOs 0
Core_0_L1I_RFO_hit 0
Core_0_L1I_RFO_miss 0
Core_0_L1I_prefetches 0
Core_0_L1I_prefetch_hit 0
Core_0_L1I_prefetch_miss 0
Core_0_L1I_writebacks 0
Core_0_L1I_writeback_hit 0
Core_0_L1I_writeback_miss 0
Core_0_L1I_prefetch_requested 0
Core_0_L1I_prefetch_dropped 0
Core_0_L1I_prefetch_issued 0
Core_0_L1I_prefetch_filled 0
Core_0_L1I_prefetch_useful 0
Core_0_L1I_prefetch_useless 0
Core_0_L1I_prefetch_late 0
Core_0_L1I_average_miss_latency 13.42742

Core_0_L1I_rq_access 499999979
Core_0_L1I_rq_forward 0
Core_0_L1I_rq_merged 401423755
Core_0_L1I_rq_to_cache 98576224
Core_0_L1I_rq_full 0

Core_0_L1I_wq_access 0
Core_0_L1I_wq_forward 0
Core_0_L1I_wq_merged 0
Core_0_L1I_wq_to_cache 0
Core_0_L1I_wq_full 0

Core_0_L1I_pq_access 0
Core_0_L1I_pq_forward 0
Core_0_L1I_pq_merged 0
Core_0_L1I_pq_to_cache 0
Core_0_L1I_pq_full 0

Core_0_L1I_acc_epochs 1653845
Core_0_L1I_acc_level_0 1653845
Core_0_L1I_acc_level_1 0
Core_0_L1I_acc_level_2 0
Core_0_L1I_acc_level_3 0
Core_0_L1I_acc_level_4 0
Core_0_L1I_acc_level_5 0
Core_0_L1I_acc_level_6 0
Core_0_L1I_acc_level_7 0
Core_0_L1I_acc_level_8 0
Core_0_L1I_acc_level_9 0

Core_0_L2C_total_access 5822753
Core_0_L2C_total_hit 4651827
Core_0_L2C_total_miss 1170926
Core_0_L2C_loads 2332186
Core_0_L2C_load_hit 1983731
Core_0_L2C_load_miss 348455
Core_0_L2C_RFOs 1354773
Core_0_L2C_RFO_hit 539760
Core_0_L2C_RFO_miss 815013
Core_0_L2C_prefetches 540523
Core_0_L2C_prefetch_hit 535146
Core_0_L2C_prefetch_miss 5377
Core_0_L2C_writebacks 1595271
Core_0_L2C_writeback_hit 1593190
Core_0_L2C_writeback_miss 2081
Core_0_L2C_prefetch_requested 1344963
Core_0_L2C_prefetch_dropped 0
Core_0_L2C_prefetch_issued 1344963
Core_0_L2C_prefetch_filled 15815
Core_0_L2C_prefetch_useful 15647
Core_0_L2C_prefetch_useless 168
Core_0_L2C_prefetch_late 2878
Core_0_L2C_average_miss_latency 4362.58769

Core_0_L2C_rq_access 3686992
Core_0_L2C_rq_forward 0
Core_0_L2C_rq_merged 0
Core_0_L2C_rq_to_cache 3686959
Core_0_L2C_rq_full 0

Core_0_L2C_wq_access 1595271
Core_0_L2C_wq_forward 33
Core_0_L2C_wq_merged 0
Core_0_L2C_wq_to_cache 1595271
Core_0_L2C_wq_full 0

Core_0_L2C_pq_access 1344963
Core_0_L2C_pq_forward 0
Core_0_L2C_pq_merged 235531
Core_0_L2C_pq_to_cache 1109432
Core_0_L2C_pq_full 0

Core_0_L2C_acc_epochs 1653845
Core_0_L2C_acc_level_0 1651891
Core_0_L2C_acc_level_1 239
Core_0_L2C_acc_level_2 213
Core_0_L2C_acc_level_3 62
Core_0_L2C_acc_level_4 111
Core_0_L2C_acc_level_5 201
Core_0_L2C_acc_level_6 47
Core_0_L2C_acc_level_7 124
Core_0_L2C_acc_level_8 142
Core_0_L2C_acc_level_9 815

Core_0_LLC_total_access 2361268
Core_0_LLC_total_hit 731897
Core_0_LLC_total_miss 1629371
Core_0_LLC_loads 345577
Core_0_LLC_load_hit 213191
Core_0_LLC_load_miss 132386
Core_0_LLC_RFOs 815013
Core_0_LLC_RFO_hit 65326
Core_0_LLC_RFO_miss 749687
Core_0_LLC_prefetches 230996
Core_0_LLC_prefetch_hit 173307
Core_0_LLC_prefetch_miss 57689
Core_0_LLC_writebacks 969682
Core_0_LLC_writeback_hit 280073
Core_0_LLC_writeback_miss 689609
Core_0_LLC_prefetch_requested 0
Core_0_LLC_prefetch_dropped 0
Core_0_LLC_prefetch_issued 0
Core_0_LLC_prefetch_filled 80072
Core_0_LLC_prefetch_useful 48596
Core_0_LLC_prefetch_useless 28225
Core_0_LLC_prefetch_late 1481
Core_0_LLC_average_miss_latency 3128.04367

Core_0_LLC_rq_access 1160591
Core_0_LLC_rq_forward 0
Core_0_LLC_rq_merged 0
Core_0_LLC_rq_to_cache 1160590
Core_0_LLC_rq_full 0

Core_0_LLC_wq_access 969682
Core_0_LLC_wq_forward 2
Core_0_LLC_wq_merged 0
Core_0_LLC_wq_to_cache 969682
Core_0_LLC_wq_full 0

Core_0_LLC_pq_access 387138
Core_0_LLC_pq_forward 0
Core_0_LLC_pq_merged 5283
Core_0_LLC_pq_to_cache 381854
Core_0_LLC_pq_full 0

Core_0_LLC_acc_epochs 1659420
Core_0_LLC_acc_level_0 1588773
Core_0_LLC_acc_level_1 24961
Core_0_LLC_acc_level_2 23442
Core_0_LLC_acc_level_3 987
Core_0_LLC_acc_level_4 105
Core_0_LLC_acc_level_5 19141
Core_0_LLC_acc_level_6 261
Core_0_LLC_acc_level_7 291
Core_0_LLC_acc_level_8 55
Core_0_LLC_acc_level_9 1404

Core_0_major_page_fault 0
Core_0_minor_page_fault 6504

spp.pref.total 1344963
spp.pref.at_L2 52354
spp.pref.at_LLC 1292609

spp.depth.max 11
spp.depth.min 0
spp.depth.avg 0

spp.breadth.max 2
spp.breadth.min 0
spp.breadth.avg 0

delta_1 1454361
delta_2 21970
delta_-1 14588
delta_7 13931
delta_4 13358
delta_-2 9622
delta_3 7998
delta_8 7421
delta_-7 343
delta_25 210
delta_13 184
delta_5 140
delta_-13 125
delta_-24 121
delta_9 112
delta_-6 105
delta_-4 103
delta_6 79
delta_-3 51
delta_-34 36
delta_-5 30
delta_-25 21
delta_14 14
delta_35 12
delta_-14 10
delta_33 9
delta_-26 7
delta_12 7
delta_34 4
delta_-11 3
delta_24 1
delta_-9 1
delta_-38 1

depth_1_delta_1 825718
depth_1_delta_2 17636
depth_1_delta_7 13399
depth_1_delta_4 11411
depth_1_delta_-1 11371
depth_1_delta_-2 9175
depth_1_delta_3 7902
depth_1_delta_8 7208
depth_1_delta_-7 302
depth_1_delta_25 199
depth_1_delta_13 151
depth_1_delta_5 140
depth_1_delta_-24 111
depth_1_delta_9 110
depth_1_delta_-13 109
depth_1_delta_-6 105
depth_1_delta_-4 97
depth_1_delta_6 77
depth_1_delta_-3 39
depth_1_delta_-34 34
depth_1_delta_-25 21
depth_1_delta_-5 19
depth_1_delta_14 14
depth_1_delta_35 12
depth_1_delta_-14 10
depth_1_delta_33 9
depth_1_delta_-26 7
depth_1_delta_12 7
depth_1_delta_34 4
depth_1_delta_-11 3
depth_1_delta_24 1
depth_1_delta_-9 1
depth_1_delta_-38 1
depth_2_delta_1 124571
depth_2_delta_2 3779
depth_2_delta_-1 2117
depth_2_delta_4 1944
depth_2_delta_7 501
depth_2_delta_-2 441
depth_2_delta_8 213
depth_2_delta_3 96
depth_2_delta_13 32
depth_2_delta_-7 16
depth_2_delta_-13 16
depth_2_delta_25 11
depth_2_delta_-24 10
depth_2_delta_-3 9
depth_2_delta_-5 8
depth_2_delta_-4 6
depth_2_delta_9 2
depth_2_delta_-34 2
depth_2_delta_6 2
depth_3_delta_1 100437
depth_3_delta_-1 709
depth_3_delta_2 441
depth_3_delta_7 15
depth_3_delta_-7 10
depth_3_delta_-2 6
depth_3_delta_-5 3
depth_3_delta_4 3
depth_3_delta_-3 3
depth_3_delta_13 1
depth_4_delta_1 93556
depth_4_delta_-1 195
depth_4_delta_2 99
depth_4_delta_-7 8
depth_4_delta_7 8
depth_5_delta_1 89726
depth_5_delta_-1 97
depth_5_delta_2 13
depth_5_delta_7 5
depth_5_delta_-7 5
depth_6_delta_1 75482
depth_6_delta_-1 46
depth_6_delta_-7 2
depth_6_delta_7 2
depth_6_delta_2 2
depth_7_delta_1 61895
depth_7_delta_-1 25
depth_7_delta_7 1
depth_8_delta_1 47770
depth_8_delta_-1 18
depth_9_delta_1 27701
depth_9_delta_-1 9
depth_10_delta_1 7492
depth_10_delta_-1 1
depth_11_delta_1 13

Channel_0_RQ_row_buffer_hit 150557
Channel_0_RQ_row_buffer_miss 789202
Channel_0_WQ_row_buffer_hit 96522
Channel_0_WQ_row_buffer_miss 767914
Channel_0_WQ_full 0
Channel_0_dbus_congested 1764211

avg_congested_cycle 190

DRAM_bw_pochs 6637679
DRAM_bw_level_0 5748442
DRAM_bw_level_1 0
DRAM_bw_level_2 0
DRAM_bw_level_3 889237
