*************************************************
   ChampSim Multicore Out-of-Order Simulator
   Last compiled: Dec 11 2024 17:59:53
*************************************************
parsing config file: /home/functionmain/桌面/Pythia/config/spp_dev2.ini

trace_0 /home/functionmain/桌面/Pythia/traces/445.gobmk-36B.champsimtrace.xz
adding L2C_PREFETCHER: SPP_dev2
Initialize SIGNATURE TABLE
ST_SET: 1
ST_WAY: 256
ST_TAG_BIT: 16
ST_TAG_MASK: ffff

Initialize PATTERN TABLE
PT_SET: 512
PT_WAY: 4
SIG_DELTA_BIT: 7
C_SIG_BIT: 4
C_DELTA_BIT: 4

Initialize PREFETCH FILTER
FILTER_SET: 1024
fill_threshold: 90
pf_threshold: 40

Initialize SHIP state
warmup_instructions 100000000
simulation_instructions 500000000
champsim_seed 171
measure_ipc 0
measure_ipc_epoch 1000
measure_dram_bw 1
measure_dram_bw_epoch 256
measure_cache_acc 1
measure_cache_acc_epoch 1024
l1d_perfect 0
l2c_perfect 0
llc_perfect 0
l1d_semi_perfect 0
l2c_semi_perfect 0
llc_semi_perfect 0
semi_perfect_cache_page_buffer_size 64

num_cpus 1
cpu_freq 4000
dram_io_freq 4800
page_size 4096
block_size 64
max_read_per_cycle 8
max_fill_per_cycle 1
dram_channels 1
log2_dram_channels 0
dram_ranks 1
dram_banks 8
dram_rows 65536
dram_columns 128
dram_row_size 8
dram_size 4096
dram_pages 1048576

fetch_width 6
decode_width 6
exec_width 4
lq_width 2
sq_width 2
retire_width 4
scheduler_size 128
branch_mispredict_penalty 20
rob_size 256
lq_size 72
sq_size 56
num_instr_destinations_sparc 4
num_instr_destinations 2
num_instr_sources 4

itlb_set 16
itlb_way 8
itlb_rq_size 16
itlb_wq_size 16
itlb_pq_size 0
itlb_mshr_size 8
itlb_latency 1

dtlb_set 16
dtlb_way 4
dtlb_rq_size 16
dtlb_wq_size 16
dtlb_pq_size 0
dtlb_mshr_size 8
dtlb_latency 1

stlb_set 128
stlb_way 12
stlb_rq_size 32
stlb_wq_size 32
stlb_pq_size 0
stlb_mshr_size 16
stlb_latency 8

l1i_size 32
l1i_set 64
l1i_way 8
l1i_rq_size 64
l1i_wq_size 64
l1i_pq_size 8
l1i_mshr_size 8
l1i_latency 1

l1d_size 32
l1d_set 64
l1d_way 8
l1d_rq_size 64
l1d_wq_size 64
l1d_pq_size 8
l1d_mshr_size 16
l1d_latency 4

l2c_size 256
l2c_set 512
l2c_way 8
l2c_rq_size 32
l2c_wq_size 32
l2c_pq_size 32
l2c_mshr_size 32
l2c_latency 10

llc_size 2048
llc_set 2048
llc_way 16
llc_rq_size 32
llc_wq_size 32
llc_pq_size 32
llc_mshr_size 64
llc_latency 20

dram_channel_width 8
dram_wq_size 64
dram_rq_size 64
tRP 15
tRCD 15
tCAS 12.5
dram_dbus_turn_around_time 30
dram_write_high_wm 56
dram_write_low_wm 48
min_dram_writes_per_switch 16
dram_mtps 4800
dram_dbus_return_time 6


Heartbeat CPU  0 instructions:    1000000 cycles:    1143375 heartbeat IPC: 0.87460 cumulative IPC: 0.87460 (Simulation time: 0 hr 0 min 1 sec) 
Heartbeat CPU  0 instructions:    2000000 cycles:    2306859 heartbeat IPC: 0.85949 cumulative IPC: 0.86698 (Simulation time: 0 hr 0 min 2 sec) 
Heartbeat CPU  0 instructions:    3000000 cycles:    3459311 heartbeat IPC: 0.86772 cumulative IPC: 0.86722 (Simulation time: 0 hr 0 min 4 sec) 
Heartbeat CPU  0 instructions:    4000000 cycles:    4510728 heartbeat IPC: 0.95110 cumulative IPC: 0.88677 (Simulation time: 0 hr 0 min 5 sec) 
Heartbeat CPU  0 instructions:    5000001 cycles:    5594528 heartbeat IPC: 0.92268 cumulative IPC: 0.89373 (Simulation time: 0 hr 0 min 6 sec) 
Heartbeat CPU  0 instructions:    6000000 cycles:    6675544 heartbeat IPC: 0.92505 cumulative IPC: 0.89880 (Simulation time: 0 hr 0 min 7 sec) 
Heartbeat CPU  0 instructions:    7000002 cycles:    7776849 heartbeat IPC: 0.90802 cumulative IPC: 0.90011 (Simulation time: 0 hr 0 min 8 sec) 
Heartbeat CPU  0 instructions:    8000000 cycles:    8891860 heartbeat IPC: 0.89685 cumulative IPC: 0.89970 (Simulation time: 0 hr 0 min 9 sec) 
Heartbeat CPU  0 instructions:    9000002 cycles:   10003612 heartbeat IPC: 0.89948 cumulative IPC: 0.89968 (Simulation time: 0 hr 0 min 11 sec) 
Heartbeat CPU  0 instructions:   10000000 cycles:   10942775 heartbeat IPC: 1.06478 cumulative IPC: 0.91385 (Simulation time: 0 hr 0 min 12 sec) 
Heartbeat CPU  0 instructions:   11000002 cycles:   11926670 heartbeat IPC: 1.01637 cumulative IPC: 0.92230 (Simulation time: 0 hr 0 min 13 sec) 
Heartbeat CPU  0 instructions:   12000000 cycles:   13064402 heartbeat IPC: 0.87894 cumulative IPC: 0.91853 (Simulation time: 0 hr 0 min 14 sec) 
Heartbeat CPU  0 instructions:   13000001 cycles:   14085236 heartbeat IPC: 0.97959 cumulative IPC: 0.92295 (Simulation time: 0 hr 0 min 15 sec) 
Heartbeat CPU  0 instructions:   14000001 cycles:   15202356 heartbeat IPC: 0.89516 cumulative IPC: 0.92091 (Simulation time: 0 hr 0 min 16 sec) 
Heartbeat CPU  0 instructions:   15000003 cycles:   16231927 heartbeat IPC: 0.97128 cumulative IPC: 0.92410 (Simulation time: 0 hr 0 min 18 sec) 
Heartbeat CPU  0 instructions:   16000000 cycles:   17274229 heartbeat IPC: 0.95941 cumulative IPC: 0.92624 (Simulation time: 0 hr 0 min 19 sec) 
Heartbeat CPU  0 instructions:   17000001 cycles:   18299169 heartbeat IPC: 0.97567 cumulative IPC: 0.92900 (Simulation time: 0 hr 0 min 20 sec) 
Heartbeat CPU  0 instructions:   18000001 cycles:   19403483 heartbeat IPC: 0.90554 cumulative IPC: 0.92767 (Simulation time: 0 hr 0 min 21 sec) 
Heartbeat CPU  0 instructions:   19000003 cycles:   20431952 heartbeat IPC: 0.97232 cumulative IPC: 0.92992 (Simulation time: 0 hr 0 min 22 sec) 
Heartbeat CPU  0 instructions:   20000000 cycles:   21406793 heartbeat IPC: 1.02581 cumulative IPC: 0.93428 (Simulation time: 0 hr 0 min 23 sec) 
Heartbeat CPU  0 instructions:   21000002 cycles:   22411654 heartbeat IPC: 0.99516 cumulative IPC: 0.93701 (Simulation time: 0 hr 0 min 25 sec) 
Heartbeat CPU  0 instructions:   22000002 cycles:   23404057 heartbeat IPC: 1.00766 cumulative IPC: 0.94001 (Simulation time: 0 hr 0 min 26 sec) 
Heartbeat CPU  0 instructions:   23000000 cycles:   24444104 heartbeat IPC: 0.96149 cumulative IPC: 0.94092 (Simulation time: 0 hr 0 min 27 sec) 
Heartbeat CPU  0 instructions:   24000000 cycles:   25400898 heartbeat IPC: 1.04516 cumulative IPC: 0.94485 (Simulation time: 0 hr 0 min 28 sec) 
Heartbeat CPU  0 instructions:   25000000 cycles:   26459093 heartbeat IPC: 0.94501 cumulative IPC: 0.94485 (Simulation time: 0 hr 0 min 29 sec) 
Heartbeat CPU  0 instructions:   26000001 cycles:   27521566 heartbeat IPC: 0.94120 cumulative IPC: 0.94471 (Simulation time: 0 hr 0 min 31 sec) 
Heartbeat CPU  0 instructions:   27000001 cycles:   28509966 heartbeat IPC: 1.01174 cumulative IPC: 0.94704 (Simulation time: 0 hr 0 min 32 sec) 
Heartbeat CPU  0 instructions:   28000000 cycles:   29571941 heartbeat IPC: 0.94164 cumulative IPC: 0.94684 (Simulation time: 0 hr 0 min 33 sec) 
Heartbeat CPU  0 instructions:   29000002 cycles:   30608710 heartbeat IPC: 0.96454 cumulative IPC: 0.94744 (Simulation time: 0 hr 0 min 34 sec) 
Heartbeat CPU  0 instructions:   30000001 cycles:   31606019 heartbeat IPC: 1.00270 cumulative IPC: 0.94919 (Simulation time: 0 hr 0 min 35 sec) 
Heartbeat CPU  0 instructions:   31000002 cycles:   32715773 heartbeat IPC: 0.90110 cumulative IPC: 0.94756 (Simulation time: 0 hr 0 min 36 sec) 
Heartbeat CPU  0 instructions:   32000000 cycles:   33764708 heartbeat IPC: 0.95335 cumulative IPC: 0.94774 (Simulation time: 0 hr 0 min 38 sec) 
Heartbeat CPU  0 instructions:   33000000 cycles:   34831606 heartbeat IPC: 0.93730 cumulative IPC: 0.94742 (Simulation time: 0 hr 0 min 39 sec) 
Heartbeat CPU  0 instructions:   34000000 cycles:   35878507 heartbeat IPC: 0.95520 cumulative IPC: 0.94764 (Simulation time: 0 hr 0 min 40 sec) 
Heartbeat CPU  0 instructions:   35000003 cycles:   36875079 heartbeat IPC: 1.00344 cumulative IPC: 0.94915 (Simulation time: 0 hr 0 min 41 sec) 
Heartbeat CPU  0 instructions:   36000000 cycles:   37971382 heartbeat IPC: 0.91215 cumulative IPC: 0.94808 (Simulation time: 0 hr 0 min 42 sec) 
Heartbeat CPU  0 instructions:   37000003 cycles:   39033054 heartbeat IPC: 0.94191 cumulative IPC: 0.94791 (Simulation time: 0 hr 0 min 44 sec) 
Heartbeat CPU  0 instructions:   38000002 cycles:   40056631 heartbeat IPC: 0.97697 cumulative IPC: 0.94866 (Simulation time: 0 hr 0 min 45 sec) 
Heartbeat CPU  0 instructions:   39000003 cycles:   41109298 heartbeat IPC: 0.94997 cumulative IPC: 0.94869 (Simulation time: 0 hr 0 min 46 sec) 
Heartbeat CPU  0 instructions:   40000000 cycles:   42184939 heartbeat IPC: 0.92968 cumulative IPC: 0.94821 (Simulation time: 0 hr 0 min 47 sec) 
Heartbeat CPU  0 instructions:   41000003 cycles:   43307195 heartbeat IPC: 0.89106 cumulative IPC: 0.94672 (Simulation time: 0 hr 0 min 48 sec) 
Heartbeat CPU  0 instructions:   42000001 cycles:   44337729 heartbeat IPC: 0.97037 cumulative IPC: 0.94727 (Simulation time: 0 hr 0 min 49 sec) 
Heartbeat CPU  0 instructions:   43000002 cycles:   45358033 heartbeat IPC: 0.98010 cumulative IPC: 0.94801 (Simulation time: 0 hr 0 min 51 sec) 
Heartbeat CPU  0 instructions:   44000000 cycles:   46441539 heartbeat IPC: 0.92293 cumulative IPC: 0.94743 (Simulation time: 0 hr 0 min 52 sec) 
Heartbeat CPU  0 instructions:   45000001 cycles:   47556334 heartbeat IPC: 0.89703 cumulative IPC: 0.94625 (Simulation time: 0 hr 0 min 53 sec) 
Heartbeat CPU  0 instructions:   46000002 cycles:   48613625 heartbeat IPC: 0.94581 cumulative IPC: 0.94624 (Simulation time: 0 hr 0 min 54 sec) 
Heartbeat CPU  0 instructions:   47000003 cycles:   49581334 heartbeat IPC: 1.03337 cumulative IPC: 0.94794 (Simulation time: 0 hr 0 min 55 sec) 
Heartbeat CPU  0 instructions:   48000000 cycles:   50583059 heartbeat IPC: 0.99827 cumulative IPC: 0.94893 (Simulation time: 0 hr 0 min 56 sec) 
Heartbeat CPU  0 instructions:   49000000 cycles:   51639619 heartbeat IPC: 0.94647 cumulative IPC: 0.94888 (Simulation time: 0 hr 0 min 58 sec) 
Heartbeat CPU  0 instructions:   50000001 cycles:   52685472 heartbeat IPC: 0.95616 cumulative IPC: 0.94903 (Simulation time: 0 hr 0 min 59 sec) 
Heartbeat CPU  0 instructions:   51000001 cycles:   53734375 heartbeat IPC: 0.95338 cumulative IPC: 0.94911 (Simulation time: 0 hr 1 min 0 sec) 
Heartbeat CPU  0 instructions:   52000000 cycles:   54802066 heartbeat IPC: 0.93660 cumulative IPC: 0.94887 (Simulation time: 0 hr 1 min 1 sec) 
Heartbeat CPU  0 instructions:   53000000 cycles:   55909320 heartbeat IPC: 0.90314 cumulative IPC: 0.94796 (Simulation time: 0 hr 1 min 2 sec) 
Heartbeat CPU  0 instructions:   54000003 cycles:   57026733 heartbeat IPC: 0.89493 cumulative IPC: 0.94692 (Simulation time: 0 hr 1 min 4 sec) 
Heartbeat CPU  0 instructions:   55000003 cycles:   58114763 heartbeat IPC: 0.91909 cumulative IPC: 0.94640 (Simulation time: 0 hr 1 min 5 sec) 
Heartbeat CPU  0 instructions:   56000000 cycles:   59175482 heartbeat IPC: 0.94275 cumulative IPC: 0.94634 (Simulation time: 0 hr 1 min 6 sec) 
Heartbeat CPU  0 instructions:   57000000 cycles:   60281734 heartbeat IPC: 0.90395 cumulative IPC: 0.94556 (Simulation time: 0 hr 1 min 7 sec) 
Heartbeat CPU  0 instructions:   58000000 cycles:   61325934 heartbeat IPC: 0.95767 cumulative IPC: 0.94577 (Simulation time: 0 hr 1 min 8 sec) 
Heartbeat CPU  0 instructions:   59000003 cycles:   62436616 heartbeat IPC: 0.90035 cumulative IPC: 0.94496 (Simulation time: 0 hr 1 min 10 sec) 
Heartbeat CPU  0 instructions:   60000000 cycles:   63505508 heartbeat IPC: 0.93555 cumulative IPC: 0.94480 (Simulation time: 0 hr 1 min 11 sec) 
Heartbeat CPU  0 instructions:   61000001 cycles:   64646324 heartbeat IPC: 0.87657 cumulative IPC: 0.94360 (Simulation time: 0 hr 1 min 12 sec) 
Heartbeat CPU  0 instructions:   62000001 cycles:   65697125 heartbeat IPC: 0.95165 cumulative IPC: 0.94372 (Simulation time: 0 hr 1 min 13 sec) 
Heartbeat CPU  0 instructions:   63000000 cycles:   66748394 heartbeat IPC: 0.95123 cumulative IPC: 0.94384 (Simulation time: 0 hr 1 min 14 sec) 
Heartbeat CPU  0 instructions:   64000000 cycles:   67822028 heartbeat IPC: 0.93142 cumulative IPC: 0.94365 (Simulation time: 0 hr 1 min 15 sec) 
Heartbeat CPU  0 instructions:   65000000 cycles:   68903573 heartbeat IPC: 0.92460 cumulative IPC: 0.94335 (Simulation time: 0 hr 1 min 17 sec) 
Heartbeat CPU  0 instructions:   66000000 cycles:   69994800 heartbeat IPC: 0.91640 cumulative IPC: 0.94293 (Simulation time: 0 hr 1 min 18 sec) 
Heartbeat CPU  0 instructions:   67000000 cycles:   71026191 heartbeat IPC: 0.96956 cumulative IPC: 0.94331 (Simulation time: 0 hr 1 min 19 sec) 
Heartbeat CPU  0 instructions:   68000000 cycles:   72081911 heartbeat IPC: 0.94722 cumulative IPC: 0.94337 (Simulation time: 0 hr 1 min 20 sec) 
Heartbeat CPU  0 instructions:   69000003 cycles:   73170042 heartbeat IPC: 0.91901 cumulative IPC: 0.94301 (Simulation time: 0 hr 1 min 21 sec) 
Heartbeat CPU  0 instructions:   70000001 cycles:   74351697 heartbeat IPC: 0.84627 cumulative IPC: 0.94147 (Simulation time: 0 hr 1 min 23 sec) 
Heartbeat CPU  0 instructions:   71000001 cycles:   75370297 heartbeat IPC: 0.98174 cumulative IPC: 0.94202 (Simulation time: 0 hr 1 min 24 sec) 
Heartbeat CPU  0 instructions:   72000000 cycles:   76442886 heartbeat IPC: 0.93232 cumulative IPC: 0.94188 (Simulation time: 0 hr 1 min 25 sec) 
Heartbeat CPU  0 instructions:   73000002 cycles:   77570840 heartbeat IPC: 0.88656 cumulative IPC: 0.94108 (Simulation time: 0 hr 1 min 26 sec) 
Heartbeat CPU  0 instructions:   74000000 cycles:   78647759 heartbeat IPC: 0.92857 cumulative IPC: 0.94090 (Simulation time: 0 hr 1 min 27 sec) 
Heartbeat CPU  0 instructions:   75000001 cycles:   79726136 heartbeat IPC: 0.92732 cumulative IPC: 0.94072 (Simulation time: 0 hr 1 min 28 sec) 
Heartbeat CPU  0 instructions:   76000000 cycles:   80702983 heartbeat IPC: 1.02370 cumulative IPC: 0.94172 (Simulation time: 0 hr 1 min 30 sec) 
Heartbeat CPU  0 instructions:   77000001 cycles:   81791227 heartbeat IPC: 0.91891 cumulative IPC: 0.94142 (Simulation time: 0 hr 1 min 31 sec) 
Heartbeat CPU  0 instructions:   78000000 cycles:   82841612 heartbeat IPC: 0.95203 cumulative IPC: 0.94156 (Simulation time: 0 hr 1 min 32 sec) 
Heartbeat CPU  0 instructions:   79000000 cycles:   83954976 heartbeat IPC: 0.89818 cumulative IPC: 0.94098 (Simulation time: 0 hr 1 min 33 sec) 
Heartbeat CPU  0 instructions:   80000000 cycles:   84958046 heartbeat IPC: 0.99694 cumulative IPC: 0.94164 (Simulation time: 0 hr 1 min 34 sec) 
Heartbeat CPU  0 instructions:   81000003 cycles:   85975497 heartbeat IPC: 0.98285 cumulative IPC: 0.94213 (Simulation time: 0 hr 1 min 35 sec) 
Heartbeat CPU  0 instructions:   82000002 cycles:   87071765 heartbeat IPC: 0.91218 cumulative IPC: 0.94175 (Simulation time: 0 hr 1 min 37 sec) 
Heartbeat CPU  0 instructions:   83000001 cycles:   88165420 heartbeat IPC: 0.91436 cumulative IPC: 0.94141 (Simulation time: 0 hr 1 min 38 sec) 
Heartbeat CPU  0 instructions:   84000000 cycles:   89119018 heartbeat IPC: 1.04866 cumulative IPC: 0.94256 (Simulation time: 0 hr 1 min 39 sec) 
Heartbeat CPU  0 instructions:   85000001 cycles:   90259266 heartbeat IPC: 0.87700 cumulative IPC: 0.94173 (Simulation time: 0 hr 1 min 40 sec) 
Heartbeat CPU  0 instructions:   86000000 cycles:   91422234 heartbeat IPC: 0.85987 cumulative IPC: 0.94069 (Simulation time: 0 hr 1 min 41 sec) 
Heartbeat CPU  0 instructions:   87000000 cycles:   92520114 heartbeat IPC: 0.91085 cumulative IPC: 0.94034 (Simulation time: 0 hr 1 min 43 sec) 
Heartbeat CPU  0 instructions:   88000000 cycles:   93615258 heartbeat IPC: 0.91312 cumulative IPC: 0.94002 (Simulation time: 0 hr 1 min 44 sec) 
Heartbeat CPU  0 instructions:   89000001 cycles:   94757668 heartbeat IPC: 0.87534 cumulative IPC: 0.93924 (Simulation time: 0 hr 1 min 45 sec) 
Heartbeat CPU  0 instructions:   90000000 cycles:   95892212 heartbeat IPC: 0.88141 cumulative IPC: 0.93855 (Simulation time: 0 hr 1 min 46 sec) 
Heartbeat CPU  0 instructions:   91000000 cycles:   97057576 heartbeat IPC: 0.85810 cumulative IPC: 0.93759 (Simulation time: 0 hr 1 min 47 sec) 
Heartbeat CPU  0 instructions:   92000000 cycles:   98092899 heartbeat IPC: 0.96588 cumulative IPC: 0.93789 (Simulation time: 0 hr 1 min 49 sec) 
Heartbeat CPU  0 instructions:   93000003 cycles:   99057139 heartbeat IPC: 1.03709 cumulative IPC: 0.93885 (Simulation time: 0 hr 1 min 50 sec) 
Heartbeat CPU  0 instructions:   94000003 cycles:  100186152 heartbeat IPC: 0.88573 cumulative IPC: 0.93825 (Simulation time: 0 hr 1 min 51 sec) 
Heartbeat CPU  0 instructions:   95000000 cycles:  101240075 heartbeat IPC: 0.94883 cumulative IPC: 0.93836 (Simulation time: 0 hr 1 min 52 sec) 
Heartbeat CPU  0 instructions:   96000000 cycles:  102330222 heartbeat IPC: 0.91731 cumulative IPC: 0.93814 (Simulation time: 0 hr 1 min 53 sec) 
Heartbeat CPU  0 instructions:   97000000 cycles:  103447994 heartbeat IPC: 0.89464 cumulative IPC: 0.93767 (Simulation time: 0 hr 1 min 54 sec) 
Heartbeat CPU  0 instructions:   98000001 cycles:  104440445 heartbeat IPC: 1.00761 cumulative IPC: 0.93833 (Simulation time: 0 hr 1 min 56 sec) 
Heartbeat CPU  0 instructions:   99000000 cycles:  105468677 heartbeat IPC: 0.97254 cumulative IPC: 0.93867 (Simulation time: 0 hr 1 min 57 sec) 
Heartbeat CPU  0 instructions:  100000000 cycles:  106525790 heartbeat IPC: 0.94597 cumulative IPC: 0.93874 (Simulation time: 0 hr 1 min 58 sec) 

Warmup complete CPU  0 instructions:  100000001 cycles:  106525792 (Simulation time: 0 hr 1 min 58 sec) 

Heartbeat CPU  0 instructions:  101000000 cycles:  109309799 heartbeat IPC: 0.35919 cumulative IPC: 0.35919 (Simulation time: 0 hr 2 min 0 sec) 
Heartbeat CPU  0 instructions:  102000001 cycles:  111979541 heartbeat IPC: 0.37457 cumulative IPC: 0.36672 (Simulation time: 0 hr 2 min 2 sec) 
Heartbeat CPU  0 instructions:  103000003 cycles:  114625420 heartbeat IPC: 0.37795 cumulative IPC: 0.37039 (Simulation time: 0 hr 2 min 4 sec) 
Heartbeat CPU  0 instructions:  104000000 cycles:  117161245 heartbeat IPC: 0.39435 cumulative IPC: 0.37610 (Simulation time: 0 hr 2 min 5 sec) 
Heartbeat CPU  0 instructions:  105000000 cycles:  119948299 heartbeat IPC: 0.35880 cumulative IPC: 0.37251 (Simulation time: 0 hr 2 min 7 sec) 
Heartbeat CPU  0 instructions:  106000000 cycles:  122667042 heartbeat IPC: 0.36782 cumulative IPC: 0.37172 (Simulation time: 0 hr 2 min 9 sec) 
Heartbeat CPU  0 instructions:  107000002 cycles:  125267729 heartbeat IPC: 0.38451 cumulative IPC: 0.37349 (Simulation time: 0 hr 2 min 11 sec) 
Heartbeat CPU  0 instructions:  108000000 cycles:  127951270 heartbeat IPC: 0.37264 cumulative IPC: 0.37339 (Simulation time: 0 hr 2 min 13 sec) 
Heartbeat CPU  0 instructions:  109000002 cycles:  130601856 heartbeat IPC: 0.37728 cumulative IPC: 0.37382 (Simulation time: 0 hr 2 min 15 sec) 
Heartbeat CPU  0 instructions:  110000002 cycles:  133254623 heartbeat IPC: 0.37696 cumulative IPC: 0.37413 (Simulation time: 0 hr 2 min 17 sec) 
Heartbeat CPU  0 instructions:  111000000 cycles:  135791891 heartbeat IPC: 0.39412 cumulative IPC: 0.37586 (Simulation time: 0 hr 2 min 18 sec) 
Heartbeat CPU  0 instructions:  112000000 cycles:  138545157 heartbeat IPC: 0.36321 cumulative IPC: 0.37477 (Simulation time: 0 hr 2 min 20 sec) 
Heartbeat CPU  0 instructions:  113000000 cycles:  141152434 heartbeat IPC: 0.38354 cumulative IPC: 0.37543 (Simulation time: 0 hr 2 min 22 sec) 
Heartbeat CPU  0 instructions:  114000000 cycles:  143975742 heartbeat IPC: 0.35419 cumulative IPC: 0.37383 (Simulation time: 0 hr 2 min 24 sec) 
Heartbeat CPU  0 instructions:  115000003 cycles:  146708762 heartbeat IPC: 0.36590 cumulative IPC: 0.37329 (Simulation time: 0 hr 2 min 26 sec) 
Heartbeat CPU  0 instructions:  116000000 cycles:  149396232 heartbeat IPC: 0.37210 cumulative IPC: 0.37322 (Simulation time: 0 hr 2 min 28 sec) 
Heartbeat CPU  0 instructions:  117000001 cycles:  152050588 heartbeat IPC: 0.37674 cumulative IPC: 0.37342 (Simulation time: 0 hr 2 min 30 sec) 
Heartbeat CPU  0 instructions:  118000000 cycles:  154676634 heartbeat IPC: 0.38080 cumulative IPC: 0.37383 (Simulation time: 0 hr 2 min 32 sec) 
Heartbeat CPU  0 instructions:  119000001 cycles:  157477070 heartbeat IPC: 0.35709 cumulative IPC: 0.37291 (Simulation time: 0 hr 2 min 34 sec) 
Heartbeat CPU  0 instructions:  120000000 cycles:  160168763 heartbeat IPC: 0.37151 cumulative IPC: 0.37284 (Simulation time: 0 hr 2 min 35 sec) 
Heartbeat CPU  0 instructions:  121000000 cycles:  162924233 heartbeat IPC: 0.36291 cumulative IPC: 0.37235 (Simulation time: 0 hr 2 min 37 sec) 
Heartbeat CPU  0 instructions:  122000001 cycles:  165612075 heartbeat IPC: 0.37205 cumulative IPC: 0.37234 (Simulation time: 0 hr 2 min 39 sec) 
Heartbeat CPU  0 instructions:  123000000 cycles:  168234608 heartbeat IPC: 0.38131 cumulative IPC: 0.37272 (Simulation time: 0 hr 2 min 41 sec) 
Heartbeat CPU  0 instructions:  124000000 cycles:  170937128 heartbeat IPC: 0.37003 cumulative IPC: 0.37261 (Simulation time: 0 hr 2 min 43 sec) 
Heartbeat CPU  0 instructions:  125000001 cycles:  173711865 heartbeat IPC: 0.36039 cumulative IPC: 0.37210 (Simulation time: 0 hr 2 min 45 sec) 
Heartbeat CPU  0 instructions:  126000000 cycles:  176468069 heartbeat IPC: 0.36282 cumulative IPC: 0.37174 (Simulation time: 0 hr 2 min 47 sec) 
Heartbeat CPU  0 instructions:  127000000 cycles:  179024962 heartbeat IPC: 0.39110 cumulative IPC: 0.37242 (Simulation time: 0 hr 2 min 49 sec) 
Heartbeat CPU  0 instructions:  128000000 cycles:  181737452 heartbeat IPC: 0.36866 cumulative IPC: 0.37228 (Simulation time: 0 hr 2 min 51 sec) 
Heartbeat CPU  0 instructions:  129000001 cycles:  184520926 heartbeat IPC: 0.35926 cumulative IPC: 0.37182 (Simulation time: 0 hr 2 min 52 sec) 
Heartbeat CPU  0 instructions:  130000000 cycles:  187225713 heartbeat IPC: 0.36971 cumulative IPC: 0.37175 (Simulation time: 0 hr 2 min 54 sec) 
Heartbeat CPU  0 instructions:  131000001 cycles:  189822734 heartbeat IPC: 0.38506 cumulative IPC: 0.37216 (Simulation time: 0 hr 2 min 56 sec) 
Heartbeat CPU  0 instructions:  132000000 cycles:  192440701 heartbeat IPC: 0.38198 cumulative IPC: 0.37246 (Simulation time: 0 hr 2 min 58 sec) 
Heartbeat CPU  0 instructions:  133000000 cycles:  195098049 heartbeat IPC: 0.37632 cumulative IPC: 0.37258 (Simulation time: 0 hr 3 min 0 sec) 
Heartbeat CPU  0 instructions:  134000001 cycles:  197803846 heartbeat IPC: 0.36958 cumulative IPC: 0.37249 (Simulation time: 0 hr 3 min 2 sec) 
Heartbeat CPU  0 instructions:  135000002 cycles:  200554114 heartbeat IPC: 0.36360 cumulative IPC: 0.37223 (Simulation time: 0 hr 3 min 4 sec) 
Heartbeat CPU  0 instructions:  136000000 cycles:  203064731 heartbeat IPC: 0.39831 cumulative IPC: 0.37291 (Simulation time: 0 hr 3 min 6 sec) 
Heartbeat CPU  0 instructions:  137000002 cycles:  205756183 heartbeat IPC: 0.37155 cumulative IPC: 0.37287 (Simulation time: 0 hr 3 min 7 sec) 
Heartbeat CPU  0 instructions:  138000000 cycles:  208474579 heartbeat IPC: 0.36786 cumulative IPC: 0.37274 (Simulation time: 0 hr 3 min 9 sec) 
Heartbeat CPU  0 instructions:  139000000 cycles:  211129336 heartbeat IPC: 0.37668 cumulative IPC: 0.37284 (Simulation time: 0 hr 3 min 11 sec) 
Heartbeat CPU  0 instructions:  140000000 cycles:  213916472 heartbeat IPC: 0.35879 cumulative IPC: 0.37247 (Simulation time: 0 hr 3 min 13 sec) 
Heartbeat CPU  0 instructions:  141000000 cycles:  216257134 heartbeat IPC: 0.42723 cumulative IPC: 0.37364 (Simulation time: 0 hr 3 min 15 sec) 
Heartbeat CPU  0 instructions:  142000000 cycles:  218656190 heartbeat IPC: 0.41683 cumulative IPC: 0.37456 (Simulation time: 0 hr 3 min 16 sec) 
Heartbeat CPU  0 instructions:  143000000 cycles:  221494274 heartbeat IPC: 0.35235 cumulative IPC: 0.37402 (Simulation time: 0 hr 3 min 18 sec) 
Heartbeat CPU  0 instructions:  144000000 cycles:  224291250 heartbeat IPC: 0.35753 cumulative IPC: 0.37362 (Simulation time: 0 hr 3 min 20 sec) 
Heartbeat CPU  0 instructions:  145000003 cycles:  226988704 heartbeat IPC: 0.37072 cumulative IPC: 0.37356 (Simulation time: 0 hr 3 min 22 sec) 
Heartbeat CPU  0 instructions:  146000000 cycles:  229737231 heartbeat IPC: 0.36383 cumulative IPC: 0.37334 (Simulation time: 0 hr 3 min 24 sec) 
Heartbeat CPU  0 instructions:  147000000 cycles:  232424828 heartbeat IPC: 0.37208 cumulative IPC: 0.37332 (Simulation time: 0 hr 3 min 26 sec) 
Heartbeat CPU  0 instructions:  148000000 cycles:  235157475 heartbeat IPC: 0.36595 cumulative IPC: 0.37316 (Simulation time: 0 hr 3 min 28 sec) 
Heartbeat CPU  0 instructions:  149000000 cycles:  237461422 heartbeat IPC: 0.43404 cumulative IPC: 0.37423 (Simulation time: 0 hr 3 min 29 sec) 
Heartbeat CPU  0 instructions:  150000000 cycles:  239653769 heartbeat IPC: 0.45613 cumulative IPC: 0.37558 (Simulation time: 0 hr 3 min 31 sec) 
Heartbeat CPU  0 instructions:  151000003 cycles:  242148936 heartbeat IPC: 0.40078 cumulative IPC: 0.37604 (Simulation time: 0 hr 3 min 33 sec) 
Heartbeat CPU  0 instructions:  152000000 cycles:  244988630 heartbeat IPC: 0.35215 cumulative IPC: 0.37555 (Simulation time: 0 hr 3 min 35 sec) 
Heartbeat CPU  0 instructions:  153000000 cycles:  247723993 heartbeat IPC: 0.36558 cumulative IPC: 0.37536 (Simulation time: 0 hr 3 min 37 sec) 
Heartbeat CPU  0 instructions:  154000000 cycles:  250436769 heartbeat IPC: 0.36863 cumulative IPC: 0.37523 (Simulation time: 0 hr 3 min 38 sec) 
Heartbeat CPU  0 instructions:  155000002 cycles:  253146889 heartbeat IPC: 0.36899 cumulative IPC: 0.37512 (Simulation time: 0 hr 3 min 40 sec) 
Heartbeat CPU  0 instructions:  156000000 cycles:  255881750 heartbeat IPC: 0.36565 cumulative IPC: 0.37494 (Simulation time: 0 hr 3 min 42 sec) 
Heartbeat CPU  0 instructions:  157000000 cycles:  258618771 heartbeat IPC: 0.36536 cumulative IPC: 0.37477 (Simulation time: 0 hr 3 min 44 sec) 
Heartbeat CPU  0 instructions:  158000002 cycles:  260597396 heartbeat IPC: 0.50540 cumulative IPC: 0.37645 (Simulation time: 0 hr 3 min 46 sec) 
Heartbeat CPU  0 instructions:  159000001 cycles:  262906384 heartbeat IPC: 0.43309 cumulative IPC: 0.37728 (Simulation time: 0 hr 3 min 47 sec) 
Heartbeat CPU  0 instructions:  160000000 cycles:  265623901 heartbeat IPC: 0.36798 cumulative IPC: 0.37713 (Simulation time: 0 hr 3 min 49 sec) 
Heartbeat CPU  0 instructions:  161000002 cycles:  268292391 heartbeat IPC: 0.37474 cumulative IPC: 0.37709 (Simulation time: 0 hr 3 min 51 sec) 
Heartbeat CPU  0 instructions:  162000000 cycles:  271163831 heartbeat IPC: 0.34826 cumulative IPC: 0.37658 (Simulation time: 0 hr 3 min 53 sec) 
Heartbeat CPU  0 instructions:  163000001 cycles:  273857267 heartbeat IPC: 0.37127 cumulative IPC: 0.37650 (Simulation time: 0 hr 3 min 55 sec) 
Heartbeat CPU  0 instructions:  164000000 cycles:  276559098 heartbeat IPC: 0.37012 cumulative IPC: 0.37640 (Simulation time: 0 hr 3 min 57 sec) 
Heartbeat CPU  0 instructions:  165000001 cycles:  279270825 heartbeat IPC: 0.36877 cumulative IPC: 0.37628 (Simulation time: 0 hr 3 min 58 sec) 
Heartbeat CPU  0 instructions:  166000001 cycles:  282003926 heartbeat IPC: 0.36588 cumulative IPC: 0.37612 (Simulation time: 0 hr 4 min 0 sec) 
Heartbeat CPU  0 instructions:  167000003 cycles:  284797332 heartbeat IPC: 0.35799 cumulative IPC: 0.37583 (Simulation time: 0 hr 4 min 2 sec) 
Heartbeat CPU  0 instructions:  168000000 cycles:  287530574 heartbeat IPC: 0.36586 cumulative IPC: 0.37568 (Simulation time: 0 hr 4 min 4 sec) 
Heartbeat CPU  0 instructions:  169000003 cycles:  290258127 heartbeat IPC: 0.36663 cumulative IPC: 0.37555 (Simulation time: 0 hr 4 min 6 sec) 
Heartbeat CPU  0 instructions:  170000001 cycles:  292979715 heartbeat IPC: 0.36743 cumulative IPC: 0.37543 (Simulation time: 0 hr 4 min 8 sec) 
Heartbeat CPU  0 instructions:  171000001 cycles:  295055727 heartbeat IPC: 0.48169 cumulative IPC: 0.37660 (Simulation time: 0 hr 4 min 9 sec) 
Heartbeat CPU  0 instructions:  172000000 cycles:  297493286 heartbeat IPC: 0.41025 cumulative IPC: 0.37703 (Simulation time: 0 hr 4 min 11 sec) 
Heartbeat CPU  0 instructions:  173000000 cycles:  300171101 heartbeat IPC: 0.37344 cumulative IPC: 0.37698 (Simulation time: 0 hr 4 min 13 sec) 
Heartbeat CPU  0 instructions:  174000000 cycles:  302636662 heartbeat IPC: 0.40559 cumulative IPC: 0.37734 (Simulation time: 0 hr 4 min 15 sec) 
Heartbeat CPU  0 instructions:  175000000 cycles:  305158773 heartbeat IPC: 0.39649 cumulative IPC: 0.37758 (Simulation time: 0 hr 4 min 17 sec) 
Heartbeat CPU  0 instructions:  176000000 cycles:  307849175 heartbeat IPC: 0.37169 cumulative IPC: 0.37750 (Simulation time: 0 hr 4 min 19 sec) 
Heartbeat CPU  0 instructions:  177000000 cycles:  310601894 heartbeat IPC: 0.36328 cumulative IPC: 0.37731 (Simulation time: 0 hr 4 min 20 sec) 
Heartbeat CPU  0 instructions:  178000003 cycles:  313249629 heartbeat IPC: 0.37768 cumulative IPC: 0.37731 (Simulation time: 0 hr 4 min 22 sec) 
Heartbeat CPU  0 instructions:  179000002 cycles:  315940452 heartbeat IPC: 0.37163 cumulative IPC: 0.37724 (Simulation time: 0 hr 4 min 24 sec) 
Heartbeat CPU  0 instructions:  180000000 cycles:  318546435 heartbeat IPC: 0.38373 cumulative IPC: 0.37732 (Simulation time: 0 hr 4 min 26 sec) 
Heartbeat CPU  0 instructions:  181000001 cycles:  321265437 heartbeat IPC: 0.36778 cumulative IPC: 0.37720 (Simulation time: 0 hr 4 min 28 sec) 
Heartbeat CPU  0 instructions:  182000000 cycles:  324123452 heartbeat IPC: 0.34989 cumulative IPC: 0.37684 (Simulation time: 0 hr 4 min 30 sec) 
Heartbeat CPU  0 instructions:  183000000 cycles:  326836966 heartbeat IPC: 0.36853 cumulative IPC: 0.37674 (Simulation time: 0 hr 4 min 32 sec) 
Heartbeat CPU  0 instructions:  184000000 cycles:  329527703 heartbeat IPC: 0.37165 cumulative IPC: 0.37668 (Simulation time: 0 hr 4 min 34 sec) 
Heartbeat CPU  0 instructions:  185000000 cycles:  332204926 heartbeat IPC: 0.37352 cumulative IPC: 0.37664 (Simulation time: 0 hr 4 min 35 sec) 
Heartbeat CPU  0 instructions:  186000003 cycles:  334926902 heartbeat IPC: 0.36738 cumulative IPC: 0.37653 (Simulation time: 0 hr 4 min 37 sec) 
Heartbeat CPU  0 instructions:  187000001 cycles:  337692416 heartbeat IPC: 0.36160 cumulative IPC: 0.37635 (Simulation time: 0 hr 4 min 39 sec) 
Heartbeat CPU  0 instructions:  188000000 cycles:  340418202 heartbeat IPC: 0.36687 cumulative IPC: 0.37624 (Simulation time: 0 hr 4 min 41 sec) 
Heartbeat CPU  0 instructions:  189000001 cycles:  343147273 heartbeat IPC: 0.36643 cumulative IPC: 0.37613 (Simulation time: 0 hr 4 min 43 sec) 
Heartbeat CPU  0 instructions:  190000000 cycles:  345941125 heartbeat IPC: 0.35793 cumulative IPC: 0.37592 (Simulation time: 0 hr 4 min 45 sec) 
Heartbeat CPU  0 instructions:  191000001 cycles:  348647727 heartbeat IPC: 0.36947 cumulative IPC: 0.37584 (Simulation time: 0 hr 4 min 47 sec) 
Heartbeat CPU  0 instructions:  192000000 cycles:  351409775 heartbeat IPC: 0.36205 cumulative IPC: 0.37569 (Simulation time: 0 hr 4 min 48 sec) 
Heartbeat CPU  0 instructions:  193000002 cycles:  354003089 heartbeat IPC: 0.38561 cumulative IPC: 0.37579 (Simulation time: 0 hr 4 min 50 sec) 
Heartbeat CPU  0 instructions:  194000001 cycles:  355943919 heartbeat IPC: 0.51524 cumulative IPC: 0.37688 (Simulation time: 0 hr 4 min 52 sec) 
Heartbeat CPU  0 instructions:  195000000 cycles:  358389801 heartbeat IPC: 0.40885 cumulative IPC: 0.37719 (Simulation time: 0 hr 4 min 54 sec) 
Heartbeat CPU  0 instructions:  196000000 cycles:  361288895 heartbeat IPC: 0.34494 cumulative IPC: 0.37682 (Simulation time: 0 hr 4 min 56 sec) 
Heartbeat CPU  0 instructions:  197000000 cycles:  363973100 heartbeat IPC: 0.37255 cumulative IPC: 0.37678 (Simulation time: 0 hr 4 min 57 sec) 
Heartbeat CPU  0 instructions:  198000000 cycles:  366691420 heartbeat IPC: 0.36787 cumulative IPC: 0.37668 (Simulation time: 0 hr 4 min 59 sec) 
Heartbeat CPU  0 instructions:  199000000 cycles:  369294542 heartbeat IPC: 0.38415 cumulative IPC: 0.37676 (Simulation time: 0 hr 5 min 1 sec) 
Heartbeat CPU  0 instructions:  200000000 cycles:  371822968 heartbeat IPC: 0.39550 cumulative IPC: 0.37694 (Simulation time: 0 hr 5 min 3 sec) 
Heartbeat CPU  0 instructions:  201000001 cycles:  374556731 heartbeat IPC: 0.36580 cumulative IPC: 0.37682 (Simulation time: 0 hr 5 min 5 sec) 
Heartbeat CPU  0 instructions:  202000002 cycles:  377224886 heartbeat IPC: 0.37479 cumulative IPC: 0.37680 (Simulation time: 0 hr 5 min 7 sec) 
Heartbeat CPU  0 instructions:  203000001 cycles:  379977979 heartbeat IPC: 0.36323 cumulative IPC: 0.37667 (Simulation time: 0 hr 5 min 9 sec) 
Heartbeat CPU  0 instructions:  204000000 cycles:  382746730 heartbeat IPC: 0.36117 cumulative IPC: 0.37651 (Simulation time: 0 hr 5 min 10 sec) 
Heartbeat CPU  0 instructions:  205000002 cycles:  385446482 heartbeat IPC: 0.37041 cumulative IPC: 0.37645 (Simulation time: 0 hr 5 min 12 sec) 
Heartbeat CPU  0 instructions:  206000002 cycles:  388161690 heartbeat IPC: 0.36830 cumulative IPC: 0.37637 (Simulation time: 0 hr 5 min 14 sec) 
Heartbeat CPU  0 instructions:  207000001 cycles:  390859215 heartbeat IPC: 0.37071 cumulative IPC: 0.37632 (Simulation time: 0 hr 5 min 16 sec) 
Heartbeat CPU  0 instructions:  208000000 cycles:  393615677 heartbeat IPC: 0.36278 cumulative IPC: 0.37619 (Simulation time: 0 hr 5 min 18 sec) 
Heartbeat CPU  0 instructions:  209000001 cycles:  396162138 heartbeat IPC: 0.39270 cumulative IPC: 0.37633 (Simulation time: 0 hr 5 min 20 sec) 
Heartbeat CPU  0 instructions:  210000000 cycles:  398382751 heartbeat IPC: 0.45033 cumulative IPC: 0.37690 (Simulation time: 0 hr 5 min 21 sec) 
Heartbeat CPU  0 instructions:  211000000 cycles:  400652761 heartbeat IPC: 0.44053 cumulative IPC: 0.37739 (Simulation time: 0 hr 5 min 23 sec) 
Heartbeat CPU  0 instructions:  212000000 cycles:  403441512 heartbeat IPC: 0.35858 cumulative IPC: 0.37721 (Simulation time: 0 hr 5 min 25 sec) 
Heartbeat CPU  0 instructions:  213000000 cycles:  406166824 heartbeat IPC: 0.36693 cumulative IPC: 0.37712 (Simulation time: 0 hr 5 min 27 sec) 
Heartbeat CPU  0 instructions:  214000000 cycles:  408987208 heartbeat IPC: 0.35456 cumulative IPC: 0.37691 (Simulation time: 0 hr 5 min 29 sec) 
Heartbeat CPU  0 instructions:  215000002 cycles:  411736051 heartbeat IPC: 0.36379 cumulative IPC: 0.37679 (Simulation time: 0 hr 5 min 31 sec) 
Heartbeat CPU  0 instructions:  216000000 cycles:  414455327 heartbeat IPC: 0.36774 cumulative IPC: 0.37671 (Simulation time: 0 hr 5 min 32 sec) 
Heartbeat CPU  0 instructions:  217000000 cycles:  417136677 heartbeat IPC: 0.37295 cumulative IPC: 0.37668 (Simulation time: 0 hr 5 min 34 sec) 
Heartbeat CPU  0 instructions:  218000003 cycles:  419868597 heartbeat IPC: 0.36604 cumulative IPC: 0.37658 (Simulation time: 0 hr 5 min 36 sec) 
Heartbeat CPU  0 instructions:  219000000 cycles:  422608091 heartbeat IPC: 0.36503 cumulative IPC: 0.37648 (Simulation time: 0 hr 5 min 38 sec) 
Heartbeat CPU  0 instructions:  220000000 cycles:  425293350 heartbeat IPC: 0.37240 cumulative IPC: 0.37645 (Simulation time: 0 hr 5 min 40 sec) 
Heartbeat CPU  0 instructions:  221000001 cycles:  428056724 heartbeat IPC: 0.36188 cumulative IPC: 0.37632 (Simulation time: 0 hr 5 min 42 sec) 
Heartbeat CPU  0 instructions:  222000001 cycles:  430822002 heartbeat IPC: 0.36163 cumulative IPC: 0.37620 (Simulation time: 0 hr 5 min 44 sec) 
Heartbeat CPU  0 instructions:  223000002 cycles:  433598194 heartbeat IPC: 0.36021 cumulative IPC: 0.37606 (Simulation time: 0 hr 5 min 46 sec) 
Heartbeat CPU  0 instructions:  224000000 cycles:  436378831 heartbeat IPC: 0.35963 cumulative IPC: 0.37592 (Simulation time: 0 hr 5 min 47 sec) 
Heartbeat CPU  0 instructions:  225000000 cycles:  439149545 heartbeat IPC: 0.36092 cumulative IPC: 0.37580 (Simulation time: 0 hr 5 min 49 sec) 
Heartbeat CPU  0 instructions:  226000001 cycles:  441947670 heartbeat IPC: 0.35738 cumulative IPC: 0.37565 (Simulation time: 0 hr 5 min 51 sec) 
Heartbeat CPU  0 instructions:  227000000 cycles:  444665399 heartbeat IPC: 0.36795 cumulative IPC: 0.37558 (Simulation time: 0 hr 5 min 53 sec) 
Heartbeat CPU  0 instructions:  228000000 cycles:  447393819 heartbeat IPC: 0.36651 cumulative IPC: 0.37551 (Simulation time: 0 hr 5 min 55 sec) 
Heartbeat CPU  0 instructions:  229000000 cycles:  449737814 heartbeat IPC: 0.42662 cumulative IPC: 0.37586 (Simulation time: 0 hr 5 min 57 sec) 
Heartbeat CPU  0 instructions:  230000000 cycles:  451798451 heartbeat IPC: 0.48529 cumulative IPC: 0.37651 (Simulation time: 0 hr 5 min 58 sec) 
Heartbeat CPU  0 instructions:  231000001 cycles:  454570497 heartbeat IPC: 0.36074 cumulative IPC: 0.37639 (Simulation time: 0 hr 6 min 0 sec) 
Heartbeat CPU  0 instructions:  232000000 cycles:  457063068 heartbeat IPC: 0.40119 cumulative IPC: 0.37656 (Simulation time: 0 hr 6 min 2 sec) 
Heartbeat CPU  0 instructions:  233000002 cycles:  459600529 heartbeat IPC: 0.39410 cumulative IPC: 0.37669 (Simulation time: 0 hr 6 min 4 sec) 
Heartbeat CPU  0 instructions:  234000002 cycles:  462290048 heartbeat IPC: 0.37181 cumulative IPC: 0.37665 (Simulation time: 0 hr 6 min 6 sec) 
Heartbeat CPU  0 instructions:  235000002 cycles:  465004527 heartbeat IPC: 0.36839 cumulative IPC: 0.37659 (Simulation time: 0 hr 6 min 8 sec) 
Heartbeat CPU  0 instructions:  236000000 cycles:  467635541 heartbeat IPC: 0.38008 cumulative IPC: 0.37662 (Simulation time: 0 hr 6 min 9 sec) 
Heartbeat CPU  0 instructions:  237000001 cycles:  470295034 heartbeat IPC: 0.37601 cumulative IPC: 0.37661 (Simulation time: 0 hr 6 min 11 sec) 
Heartbeat CPU  0 instructions:  238000002 cycles:  473072937 heartbeat IPC: 0.35998 cumulative IPC: 0.37649 (Simulation time: 0 hr 6 min 13 sec) 
Heartbeat CPU  0 instructions:  239000000 cycles:  475688231 heartbeat IPC: 0.38237 cumulative IPC: 0.37653 (Simulation time: 0 hr 6 min 15 sec) 
Heartbeat CPU  0 instructions:  240000000 cycles:  478455208 heartbeat IPC: 0.36141 cumulative IPC: 0.37642 (Simulation time: 0 hr 6 min 17 sec) 
Heartbeat CPU  0 instructions:  241000001 cycles:  481251276 heartbeat IPC: 0.35765 cumulative IPC: 0.37628 (Simulation time: 0 hr 6 min 19 sec) 
Heartbeat CPU  0 instructions:  242000000 cycles:  483939371 heartbeat IPC: 0.37201 cumulative IPC: 0.37625 (Simulation time: 0 hr 6 min 21 sec) 
Heartbeat CPU  0 instructions:  243000002 cycles:  486739070 heartbeat IPC: 0.35718 cumulative IPC: 0.37610 (Simulation time: 0 hr 6 min 22 sec) 
Heartbeat CPU  0 instructions:  244000000 cycles:  489479411 heartbeat IPC: 0.36492 cumulative IPC: 0.37602 (Simulation time: 0 hr 6 min 24 sec) 
Heartbeat CPU  0 instructions:  245000001 cycles:  492131936 heartbeat IPC: 0.37700 cumulative IPC: 0.37603 (Simulation time: 0 hr 6 min 26 sec) 
Heartbeat CPU  0 instructions:  246000000 cycles:  494609148 heartbeat IPC: 0.40368 cumulative IPC: 0.37621 (Simulation time: 0 hr 6 min 28 sec) 
Heartbeat CPU  0 instructions:  247000001 cycles:  497376921 heartbeat IPC: 0.36130 cumulative IPC: 0.37610 (Simulation time: 0 hr 6 min 30 sec) 
Heartbeat CPU  0 instructions:  248000000 cycles:  499911938 heartbeat IPC: 0.39447 cumulative IPC: 0.37622 (Simulation time: 0 hr 6 min 32 sec) 
Heartbeat CPU  0 instructions:  249000000 cycles:  502603702 heartbeat IPC: 0.37150 cumulative IPC: 0.37619 (Simulation time: 0 hr 6 min 34 sec) 
Heartbeat CPU  0 instructions:  250000000 cycles:  505288531 heartbeat IPC: 0.37246 cumulative IPC: 0.37616 (Simulation time: 0 hr 6 min 36 sec) 
Heartbeat CPU  0 instructions:  251000000 cycles:  507648032 heartbeat IPC: 0.42382 cumulative IPC: 0.37644 (Simulation time: 0 hr 6 min 37 sec) 
Heartbeat CPU  0 instructions:  252000000 cycles:  509941148 heartbeat IPC: 0.43609 cumulative IPC: 0.37678 (Simulation time: 0 hr 6 min 39 sec) 
Heartbeat CPU  0 instructions:  253000001 cycles:  512386862 heartbeat IPC: 0.40888 cumulative IPC: 0.37698 (Simulation time: 0 hr 6 min 41 sec) 
Heartbeat CPU  0 instructions:  254000000 cycles:  514999144 heartbeat IPC: 0.38281 cumulative IPC: 0.37701 (Simulation time: 0 hr 6 min 43 sec) 
Heartbeat CPU  0 instructions:  255000001 cycles:  517382556 heartbeat IPC: 0.41957 cumulative IPC: 0.37726 (Simulation time: 0 hr 6 min 45 sec) 
Heartbeat CPU  0 instructions:  256000000 cycles:  520186156 heartbeat IPC: 0.35668 cumulative IPC: 0.37712 (Simulation time: 0 hr 6 min 46 sec) 
Heartbeat CPU  0 instructions:  257000002 cycles:  522990671 heartbeat IPC: 0.35657 cumulative IPC: 0.37698 (Simulation time: 0 hr 6 min 48 sec) 
Heartbeat CPU  0 instructions:  258000001 cycles:  525725311 heartbeat IPC: 0.36568 cumulative IPC: 0.37691 (Simulation time: 0 hr 6 min 50 sec) 
Heartbeat CPU  0 instructions:  259000000 cycles:  528409568 heartbeat IPC: 0.37254 cumulative IPC: 0.37688 (Simulation time: 0 hr 6 min 52 sec) 
Heartbeat CPU  0 instructions:  260000000 cycles:  531102838 heartbeat IPC: 0.37130 cumulative IPC: 0.37685 (Simulation time: 0 hr 6 min 54 sec) 
Heartbeat CPU  0 instructions:  261000001 cycles:  533906914 heartbeat IPC: 0.35662 cumulative IPC: 0.37671 (Simulation time: 0 hr 6 min 56 sec) 
Heartbeat CPU  0 instructions:  262000003 cycles:  536556958 heartbeat IPC: 0.37735 cumulative IPC: 0.37672 (Simulation time: 0 hr 6 min 58 sec) 
Heartbeat CPU  0 instructions:  263000002 cycles:  539347520 heartbeat IPC: 0.35835 cumulative IPC: 0.37660 (Simulation time: 0 hr 6 min 59 sec) 
Heartbeat CPU  0 instructions:  264000000 cycles:  541975093 heartbeat IPC: 0.38058 cumulative IPC: 0.37662 (Simulation time: 0 hr 7 min 1 sec) 
Heartbeat CPU  0 instructions:  265000000 cycles:  544723795 heartbeat IPC: 0.36381 cumulative IPC: 0.37654 (Simulation time: 0 hr 7 min 3 sec) 
Heartbeat CPU  0 instructions:  266000001 cycles:  547543101 heartbeat IPC: 0.35470 cumulative IPC: 0.37640 (Simulation time: 0 hr 7 min 5 sec) 
Heartbeat CPU  0 instructions:  267000003 cycles:  550249219 heartbeat IPC: 0.36953 cumulative IPC: 0.37636 (Simulation time: 0 hr 7 min 7 sec) 
Heartbeat CPU  0 instructions:  268000000 cycles:  553018742 heartbeat IPC: 0.36107 cumulative IPC: 0.37627 (Simulation time: 0 hr 7 min 9 sec) 
Heartbeat CPU  0 instructions:  269000001 cycles:  555766811 heartbeat IPC: 0.36389 cumulative IPC: 0.37619 (Simulation time: 0 hr 7 min 11 sec) 
Heartbeat CPU  0 instructions:  270000000 cycles:  558638322 heartbeat IPC: 0.34825 cumulative IPC: 0.37601 (Simulation time: 0 hr 7 min 12 sec) 
Heartbeat CPU  0 instructions:  271000000 cycles:  561365873 heartbeat IPC: 0.36663 cumulative IPC: 0.37596 (Simulation time: 0 hr 7 min 14 sec) 
Heartbeat CPU  0 instructions:  272000000 cycles:  564085490 heartbeat IPC: 0.36770 cumulative IPC: 0.37591 (Simulation time: 0 hr 7 min 16 sec) 
Heartbeat CPU  0 instructions:  273000001 cycles:  566474852 heartbeat IPC: 0.41852 cumulative IPC: 0.37613 (Simulation time: 0 hr 7 min 18 sec) 
Heartbeat CPU  0 instructions:  274000000 cycles:  568726197 heartbeat IPC: 0.44418 cumulative IPC: 0.37646 (Simulation time: 0 hr 7 min 20 sec) 
Heartbeat CPU  0 instructions:  275000001 cycles:  571192963 heartbeat IPC: 0.40539 cumulative IPC: 0.37661 (Simulation time: 0 hr 7 min 21 sec) 
Heartbeat CPU  0 instructions:  276000000 cycles:  573828623 heartbeat IPC: 0.37941 cumulative IPC: 0.37663 (Simulation time: 0 hr 7 min 23 sec) 
Heartbeat CPU  0 instructions:  277000000 cycles:  576607451 heartbeat IPC: 0.35986 cumulative IPC: 0.37653 (Simulation time: 0 hr 7 min 25 sec) 
Heartbeat CPU  0 instructions:  278000001 cycles:  579453016 heartbeat IPC: 0.35142 cumulative IPC: 0.37638 (Simulation time: 0 hr 7 min 27 sec) 
Heartbeat CPU  0 instructions:  279000002 cycles:  582202988 heartbeat IPC: 0.36364 cumulative IPC: 0.37631 (Simulation time: 0 hr 7 min 29 sec) 
Heartbeat CPU  0 instructions:  280000000 cycles:  584889123 heartbeat IPC: 0.37228 cumulative IPC: 0.37628 (Simulation time: 0 hr 7 min 31 sec) 
Heartbeat CPU  0 instructions:  281000000 cycles:  587607031 heartbeat IPC: 0.36793 cumulative IPC: 0.37624 (Simulation time: 0 hr 7 min 33 sec) 
Heartbeat CPU  0 instructions:  282000003 cycles:  590392826 heartbeat IPC: 0.35897 cumulative IPC: 0.37614 (Simulation time: 0 hr 7 min 34 sec) 
Heartbeat CPU  0 instructions:  283000003 cycles:  593109621 heartbeat IPC: 0.36808 cumulative IPC: 0.37609 (Simulation time: 0 hr 7 min 36 sec) 
Heartbeat CPU  0 instructions:  284000000 cycles:  595731222 heartbeat IPC: 0.38145 cumulative IPC: 0.37612 (Simulation time: 0 hr 7 min 38 sec) 
Heartbeat CPU  0 instructions:  285000001 cycles:  598519753 heartbeat IPC: 0.35861 cumulative IPC: 0.37602 (Simulation time: 0 hr 7 min 40 sec) 
Heartbeat CPU  0 instructions:  286000003 cycles:  601202014 heartbeat IPC: 0.37282 cumulative IPC: 0.37600 (Simulation time: 0 hr 7 min 42 sec) 
Heartbeat CPU  0 instructions:  287000000 cycles:  603941194 heartbeat IPC: 0.36507 cumulative IPC: 0.37594 (Simulation time: 0 hr 7 min 44 sec) 
Heartbeat CPU  0 instructions:  288000000 cycles:  606724465 heartbeat IPC: 0.35929 cumulative IPC: 0.37585 (Simulation time: 0 hr 7 min 46 sec) 
Heartbeat CPU  0 instructions:  289000000 cycles:  609440286 heartbeat IPC: 0.36821 cumulative IPC: 0.37581 (Simulation time: 0 hr 7 min 48 sec) 
Heartbeat CPU  0 instructions:  290000000 cycles:  612248865 heartbeat IPC: 0.35605 cumulative IPC: 0.37570 (Simulation time: 0 hr 7 min 50 sec) 
Heartbeat CPU  0 instructions:  291000000 cycles:  614980814 heartbeat IPC: 0.36604 cumulative IPC: 0.37565 (Simulation time: 0 hr 7 min 51 sec) 
Heartbeat CPU  0 instructions:  292000000 cycles:  617674385 heartbeat IPC: 0.37125 cumulative IPC: 0.37562 (Simulation time: 0 hr 7 min 53 sec) 
Heartbeat CPU  0 instructions:  293000002 cycles:  620496703 heartbeat IPC: 0.35432 cumulative IPC: 0.37551 (Simulation time: 0 hr 7 min 55 sec) 
Heartbeat CPU  0 instructions:  294000003 cycles:  623195464 heartbeat IPC: 0.37054 cumulative IPC: 0.37548 (Simulation time: 0 hr 7 min 57 sec) 
Heartbeat CPU  0 instructions:  295000003 cycles:  625956461 heartbeat IPC: 0.36219 cumulative IPC: 0.37541 (Simulation time: 0 hr 7 min 59 sec) 
Heartbeat CPU  0 instructions:  296000000 cycles:  628575353 heartbeat IPC: 0.38184 cumulative IPC: 0.37544 (Simulation time: 0 hr 8 min 1 sec) 
Heartbeat CPU  0 instructions:  297000001 cycles:  630713970 heartbeat IPC: 0.46759 cumulative IPC: 0.37582 (Simulation time: 0 hr 8 min 2 sec) 
Heartbeat CPU  0 instructions:  298000000 cycles:  633118089 heartbeat IPC: 0.41595 cumulative IPC: 0.37600 (Simulation time: 0 hr 8 min 4 sec) 
Heartbeat CPU  0 instructions:  299000000 cycles:  635753400 heartbeat IPC: 0.37946 cumulative IPC: 0.37602 (Simulation time: 0 hr 8 min 6 sec) 
Heartbeat CPU  0 instructions:  300000000 cycles:  638259230 heartbeat IPC: 0.39907 cumulative IPC: 0.37613 (Simulation time: 0 hr 8 min 8 sec) 
Heartbeat CPU  0 instructions:  301000001 cycles:  640754655 heartbeat IPC: 0.40073 cumulative IPC: 0.37624 (Simulation time: 0 hr 8 min 10 sec) 
Heartbeat CPU  0 instructions:  302000000 cycles:  643340411 heartbeat IPC: 0.38673 cumulative IPC: 0.37629 (Simulation time: 0 hr 8 min 12 sec) 
Heartbeat CPU  0 instructions:  303000003 cycles:  646083001 heartbeat IPC: 0.36462 cumulative IPC: 0.37623 (Simulation time: 0 hr 8 min 13 sec) 
Heartbeat CPU  0 instructions:  304000000 cycles:  648750721 heartbeat IPC: 0.37485 cumulative IPC: 0.37623 (Simulation time: 0 hr 8 min 15 sec) 
Heartbeat CPU  0 instructions:  305000000 cycles:  651479115 heartbeat IPC: 0.36652 cumulative IPC: 0.37618 (Simulation time: 0 hr 8 min 17 sec) 
Heartbeat CPU  0 instructions:  306000002 cycles:  654315224 heartbeat IPC: 0.35260 cumulative IPC: 0.37606 (Simulation time: 0 hr 8 min 19 sec) 
Heartbeat CPU  0 instructions:  307000000 cycles:  657051543 heartbeat IPC: 0.36545 cumulative IPC: 0.37600 (Simulation time: 0 hr 8 min 21 sec) 
Heartbeat CPU  0 instructions:  308000000 cycles:  659740385 heartbeat IPC: 0.37191 cumulative IPC: 0.37598 (Simulation time: 0 hr 8 min 23 sec) 
Heartbeat CPU  0 instructions:  309000000 cycles:  662445962 heartbeat IPC: 0.36961 cumulative IPC: 0.37595 (Simulation time: 0 hr 8 min 25 sec) 
Heartbeat CPU  0 instructions:  310000000 cycles:  665196646 heartbeat IPC: 0.36355 cumulative IPC: 0.37589 (Simulation time: 0 hr 8 min 27 sec) 
Heartbeat CPU  0 instructions:  311000003 cycles:  667920918 heartbeat IPC: 0.36707 cumulative IPC: 0.37585 (Simulation time: 0 hr 8 min 28 sec) 
Heartbeat CPU  0 instructions:  312000000 cycles:  670544435 heartbeat IPC: 0.38117 cumulative IPC: 0.37587 (Simulation time: 0 hr 8 min 30 sec) 
Heartbeat CPU  0 instructions:  313000000 cycles:  673302009 heartbeat IPC: 0.36264 cumulative IPC: 0.37581 (Simulation time: 0 hr 8 min 32 sec) 
Heartbeat CPU  0 instructions:  314000002 cycles:  676008430 heartbeat IPC: 0.36949 cumulative IPC: 0.37578 (Simulation time: 0 hr 8 min 34 sec) 
Heartbeat CPU  0 instructions:  315000002 cycles:  678693855 heartbeat IPC: 0.37238 cumulative IPC: 0.37576 (Simulation time: 0 hr 8 min 36 sec) 
Heartbeat CPU  0 instructions:  316000000 cycles:  681450537 heartbeat IPC: 0.36275 cumulative IPC: 0.37570 (Simulation time: 0 hr 8 min 38 sec) 
Heartbeat CPU  0 instructions:  317000001 cycles:  684207856 heartbeat IPC: 0.36267 cumulative IPC: 0.37564 (Simulation time: 0 hr 8 min 40 sec) 
Heartbeat CPU  0 instructions:  318000000 cycles:  686974068 heartbeat IPC: 0.36150 cumulative IPC: 0.37557 (Simulation time: 0 hr 8 min 41 sec) 
Heartbeat CPU  0 instructions:  319000000 cycles:  689726359 heartbeat IPC: 0.36333 cumulative IPC: 0.37551 (Simulation time: 0 hr 8 min 43 sec) 
Heartbeat CPU  0 instructions:  320000000 cycles:  692418531 heartbeat IPC: 0.37145 cumulative IPC: 0.37550 (Simulation time: 0 hr 8 min 45 sec) 
Heartbeat CPU  0 instructions:  321000003 cycles:  694956783 heartbeat IPC: 0.39397 cumulative IPC: 0.37558 (Simulation time: 0 hr 8 min 47 sec) 
Heartbeat CPU  0 instructions:  322000002 cycles:  697452405 heartbeat IPC: 0.40070 cumulative IPC: 0.37568 (Simulation time: 0 hr 8 min 49 sec) 
Heartbeat CPU  0 instructions:  323000000 cycles:  699576468 heartbeat IPC: 0.47079 cumulative IPC: 0.37602 (Simulation time: 0 hr 8 min 51 sec) 
Heartbeat CPU  0 instructions:  324000000 cycles:  701982404 heartbeat IPC: 0.41564 cumulative IPC: 0.37618 (Simulation time: 0 hr 8 min 52 sec) 
Heartbeat CPU  0 instructions:  325000000 cycles:  704616230 heartbeat IPC: 0.37968 cumulative IPC: 0.37620 (Simulation time: 0 hr 8 min 54 sec) 
Heartbeat CPU  0 instructions:  326000000 cycles:  707246540 heartbeat IPC: 0.38018 cumulative IPC: 0.37621 (Simulation time: 0 hr 8 min 56 sec) 
Heartbeat CPU  0 instructions:  327000002 cycles:  709945474 heartbeat IPC: 0.37052 cumulative IPC: 0.37619 (Simulation time: 0 hr 8 min 58 sec) 
Heartbeat CPU  0 instructions:  328000000 cycles:  712581185 heartbeat IPC: 0.37940 cumulative IPC: 0.37620 (Simulation time: 0 hr 9 min 0 sec) 
Heartbeat CPU  0 instructions:  329000001 cycles:  715294392 heartbeat IPC: 0.36857 cumulative IPC: 0.37617 (Simulation time: 0 hr 9 min 2 sec) 
Heartbeat CPU  0 instructions:  330000000 cycles:  718110977 heartbeat IPC: 0.35504 cumulative IPC: 0.37607 (Simulation time: 0 hr 9 min 4 sec) 
Heartbeat CPU  0 instructions:  331000000 cycles:  720931330 heartbeat IPC: 0.35457 cumulative IPC: 0.37597 (Simulation time: 0 hr 9 min 5 sec) 
Heartbeat CPU  0 instructions:  332000000 cycles:  723598429 heartbeat IPC: 0.37494 cumulative IPC: 0.37597 (Simulation time: 0 hr 9 min 7 sec) 
Heartbeat CPU  0 instructions:  333000000 cycles:  726265606 heartbeat IPC: 0.37493 cumulative IPC: 0.37596 (Simulation time: 0 hr 9 min 9 sec) 
Heartbeat CPU  0 instructions:  334000001 cycles:  729015622 heartbeat IPC: 0.36363 cumulative IPC: 0.37591 (Simulation time: 0 hr 9 min 11 sec) 
Heartbeat CPU  0 instructions:  335000003 cycles:  731762320 heartbeat IPC: 0.36407 cumulative IPC: 0.37586 (Simulation time: 0 hr 9 min 13 sec) 
Heartbeat CPU  0 instructions:  336000000 cycles:  734422474 heartbeat IPC: 0.37592 cumulative IPC: 0.37586 (Simulation time: 0 hr 9 min 15 sec) 
Heartbeat CPU  0 instructions:  337000000 cycles:  737136127 heartbeat IPC: 0.36851 cumulative IPC: 0.37583 (Simulation time: 0 hr 9 min 17 sec) 
Heartbeat CPU  0 instructions:  338000000 cycles:  739887659 heartbeat IPC: 0.36343 cumulative IPC: 0.37577 (Simulation time: 0 hr 9 min 18 sec) 
Heartbeat CPU  0 instructions:  339000000 cycles:  742537004 heartbeat IPC: 0.37745 cumulative IPC: 0.37578 (Simulation time: 0 hr 9 min 20 sec) 
Heartbeat CPU  0 instructions:  340000000 cycles:  745278067 heartbeat IPC: 0.36482 cumulative IPC: 0.37573 (Simulation time: 0 hr 9 min 22 sec) 
Heartbeat CPU  0 instructions:  341000002 cycles:  748090435 heartbeat IPC: 0.35557 cumulative IPC: 0.37564 (Simulation time: 0 hr 9 min 24 sec) 
Heartbeat CPU  0 instructions:  342000000 cycles:  750797216 heartbeat IPC: 0.36944 cumulative IPC: 0.37562 (Simulation time: 0 hr 9 min 26 sec) 
Heartbeat CPU  0 instructions:  343000000 cycles:  753578040 heartbeat IPC: 0.35961 cumulative IPC: 0.37555 (Simulation time: 0 hr 9 min 28 sec) 
Heartbeat CPU  0 instructions:  344000000 cycles:  756298467 heartbeat IPC: 0.36759 cumulative IPC: 0.37552 (Simulation time: 0 hr 9 min 30 sec) 
Heartbeat CPU  0 instructions:  345000000 cycles:  758845247 heartbeat IPC: 0.39265 cumulative IPC: 0.37558 (Simulation time: 0 hr 9 min 32 sec) 
Heartbeat CPU  0 instructions:  346000001 cycles:  761440109 heartbeat IPC: 0.38538 cumulative IPC: 0.37562 (Simulation time: 0 hr 9 min 34 sec) 
Heartbeat CPU  0 instructions:  347000000 cycles:  763509597 heartbeat IPC: 0.48321 cumulative IPC: 0.37596 (Simulation time: 0 hr 9 min 35 sec) 
Heartbeat CPU  0 instructions:  348000000 cycles:  765779787 heartbeat IPC: 0.44049 cumulative IPC: 0.37618 (Simulation time: 0 hr 9 min 37 sec) 
Heartbeat CPU  0 instructions:  349000003 cycles:  768466098 heartbeat IPC: 0.37226 cumulative IPC: 0.37617 (Simulation time: 0 hr 9 min 39 sec) 
Heartbeat CPU  0 instructions:  350000002 cycles:  771146714 heartbeat IPC: 0.37305 cumulative IPC: 0.37615 (Simulation time: 0 hr 9 min 41 sec) 
Heartbeat CPU  0 instructions:  351000001 cycles:  773782200 heartbeat IPC: 0.37944 cumulative IPC: 0.37617 (Simulation time: 0 hr 9 min 42 sec) 
Heartbeat CPU  0 instructions:  352000000 cycles:  776505325 heartbeat IPC: 0.36722 cumulative IPC: 0.37613 (Simulation time: 0 hr 9 min 44 sec) 
Heartbeat CPU  0 instructions:  353000000 cycles:  779326469 heartbeat IPC: 0.35447 cumulative IPC: 0.37604 (Simulation time: 0 hr 9 min 46 sec) 
Heartbeat CPU  0 instructions:  354000001 cycles:  782071655 heartbeat IPC: 0.36427 cumulative IPC: 0.37599 (Simulation time: 0 hr 9 min 48 sec) 
Heartbeat CPU  0 instructions:  355000002 cycles:  784786063 heartbeat IPC: 0.36840 cumulative IPC: 0.37596 (Simulation time: 0 hr 9 min 50 sec) 
Heartbeat CPU  0 instructions:  356000000 cycles:  787436938 heartbeat IPC: 0.37723 cumulative IPC: 0.37597 (Simulation time: 0 hr 9 min 52 sec) 
Heartbeat CPU  0 instructions:  357000000 cycles:  790182706 heartbeat IPC: 0.36420 cumulative IPC: 0.37592 (Simulation time: 0 hr 9 min 54 sec) 
Heartbeat CPU  0 instructions:  358000000 cycles:  792835130 heartbeat IPC: 0.37701 cumulative IPC: 0.37592 (Simulation time: 0 hr 9 min 56 sec) 
Heartbeat CPU  0 instructions:  359000001 cycles:  795522727 heartbeat IPC: 0.37208 cumulative IPC: 0.37591 (Simulation time: 0 hr 9 min 57 sec) 
Heartbeat CPU  0 instructions:  360000000 cycles:  798277578 heartbeat IPC: 0.36300 cumulative IPC: 0.37586 (Simulation time: 0 hr 9 min 59 sec) 
Heartbeat CPU  0 instructions:  361000002 cycles:  800936309 heartbeat IPC: 0.37612 cumulative IPC: 0.37586 (Simulation time: 0 hr 10 min 1 sec) 
Heartbeat CPU  0 instructions:  362000000 cycles:  803714134 heartbeat IPC: 0.35999 cumulative IPC: 0.37580 (Simulation time: 0 hr 10 min 3 sec) 
Heartbeat CPU  0 instructions:  363000000 cycles:  806474427 heartbeat IPC: 0.36228 cumulative IPC: 0.37574 (Simulation time: 0 hr 10 min 5 sec) 
Heartbeat CPU  0 instructions:  364000000 cycles:  809214797 heartbeat IPC: 0.36491 cumulative IPC: 0.37570 (Simulation time: 0 hr 10 min 7 sec) 
Heartbeat CPU  0 instructions:  365000001 cycles:  811966326 heartbeat IPC: 0.36343 cumulative IPC: 0.37565 (Simulation time: 0 hr 10 min 9 sec) 
Heartbeat CPU  0 instructions:  366000000 cycles:  814706690 heartbeat IPC: 0.36491 cumulative IPC: 0.37561 (Simulation time: 0 hr 10 min 11 sec) 
Heartbeat CPU  0 instructions:  367000000 cycles:  817261579 heartbeat IPC: 0.39141 cumulative IPC: 0.37567 (Simulation time: 0 hr 10 min 13 sec) 
Heartbeat CPU  0 instructions:  368000000 cycles:  819844804 heartbeat IPC: 0.38711 cumulative IPC: 0.37571 (Simulation time: 0 hr 10 min 14 sec) 
Heartbeat CPU  0 instructions:  369000000 cycles:  821925398 heartbeat IPC: 0.48063 cumulative IPC: 0.37601 (Simulation time: 0 hr 10 min 16 sec) 
Heartbeat CPU  0 instructions:  370000000 cycles:  824153898 heartbeat IPC: 0.44873 cumulative IPC: 0.37624 (Simulation time: 0 hr 10 min 18 sec) 
Heartbeat CPU  0 instructions:  371000000 cycles:  826803658 heartbeat IPC: 0.37739 cumulative IPC: 0.37624 (Simulation time: 0 hr 10 min 20 sec) 
Heartbeat CPU  0 instructions:  372000000 cycles:  829663381 heartbeat IPC: 0.34968 cumulative IPC: 0.37614 (Simulation time: 0 hr 10 min 21 sec) 
Heartbeat CPU  0 instructions:  373000000 cycles:  832383476 heartbeat IPC: 0.36763 cumulative IPC: 0.37611 (Simulation time: 0 hr 10 min 23 sec) 
Heartbeat CPU  0 instructions:  374000003 cycles:  835064321 heartbeat IPC: 0.37302 cumulative IPC: 0.37610 (Simulation time: 0 hr 10 min 25 sec) 
Heartbeat CPU  0 instructions:  375000000 cycles:  837714235 heartbeat IPC: 0.37737 cumulative IPC: 0.37610 (Simulation time: 0 hr 10 min 27 sec) 
Heartbeat CPU  0 instructions:  376000000 cycles:  840478475 heartbeat IPC: 0.36176 cumulative IPC: 0.37605 (Simulation time: 0 hr 10 min 29 sec) 
Heartbeat CPU  0 instructions:  377000003 cycles:  843144060 heartbeat IPC: 0.37515 cumulative IPC: 0.37604 (Simulation time: 0 hr 10 min 31 sec) 
Heartbeat CPU  0 instructions:  378000000 cycles:  845833543 heartbeat IPC: 0.37182 cumulative IPC: 0.37603 (Simulation time: 0 hr 10 min 33 sec) 
Heartbeat CPU  0 instructions:  379000002 cycles:  848611783 heartbeat IPC: 0.35994 cumulative IPC: 0.37597 (Simulation time: 0 hr 10 min 34 sec) 
Heartbeat CPU  0 instructions:  380000000 cycles:  851289252 heartbeat IPC: 0.37349 cumulative IPC: 0.37596 (Simulation time: 0 hr 10 min 36 sec) 
Heartbeat CPU  0 instructions:  381000000 cycles:  854089904 heartbeat IPC: 0.35706 cumulative IPC: 0.37589 (Simulation time: 0 hr 10 min 38 sec) 
Heartbeat CPU  0 instructions:  382000001 cycles:  856818350 heartbeat IPC: 0.36651 cumulative IPC: 0.37585 (Simulation time: 0 hr 10 min 40 sec) 
Heartbeat CPU  0 instructions:  383000002 cycles:  859483499 heartbeat IPC: 0.37521 cumulative IPC: 0.37585 (Simulation time: 0 hr 10 min 42 sec) 
Heartbeat CPU  0 instructions:  384000000 cycles:  861583737 heartbeat IPC: 0.47614 cumulative IPC: 0.37613 (Simulation time: 0 hr 10 min 44 sec) 
Heartbeat CPU  0 instructions:  385000000 cycles:  863695187 heartbeat IPC: 0.47361 cumulative IPC: 0.37640 (Simulation time: 0 hr 10 min 45 sec) 
Heartbeat CPU  0 instructions:  386000002 cycles:  866424606 heartbeat IPC: 0.36638 cumulative IPC: 0.37637 (Simulation time: 0 hr 10 min 47 sec) 
Heartbeat CPU  0 instructions:  387000001 cycles:  869054517 heartbeat IPC: 0.38024 cumulative IPC: 0.37638 (Simulation time: 0 hr 10 min 49 sec) 
Heartbeat CPU  0 instructions:  388000000 cycles:  871792796 heartbeat IPC: 0.36519 cumulative IPC: 0.37634 (Simulation time: 0 hr 10 min 51 sec) 
Heartbeat CPU  0 instructions:  389000000 cycles:  874490665 heartbeat IPC: 0.37066 cumulative IPC: 0.37632 (Simulation time: 0 hr 10 min 53 sec) 
Heartbeat CPU  0 instructions:  390000000 cycles:  877171871 heartbeat IPC: 0.37297 cumulative IPC: 0.37631 (Simulation time: 0 hr 10 min 55 sec) 
Heartbeat CPU  0 instructions:  391000001 cycles:  879876290 heartbeat IPC: 0.36977 cumulative IPC: 0.37628 (Simulation time: 0 hr 10 min 56 sec) 
Heartbeat CPU  0 instructions:  392000000 cycles:  882612273 heartbeat IPC: 0.36550 cumulative IPC: 0.37625 (Simulation time: 0 hr 10 min 58 sec) 
Heartbeat CPU  0 instructions:  393000000 cycles:  885333912 heartbeat IPC: 0.36743 cumulative IPC: 0.37622 (Simulation time: 0 hr 11 min 0 sec) 
Heartbeat CPU  0 instructions:  394000002 cycles:  887943069 heartbeat IPC: 0.38327 cumulative IPC: 0.37624 (Simulation time: 0 hr 11 min 2 sec) 
Heartbeat CPU  0 instructions:  395000002 cycles:  890727210 heartbeat IPC: 0.35918 cumulative IPC: 0.37618 (Simulation time: 0 hr 11 min 4 sec) 
Heartbeat CPU  0 instructions:  396000000 cycles:  893384791 heartbeat IPC: 0.37628 cumulative IPC: 0.37618 (Simulation time: 0 hr 11 min 6 sec) 
Heartbeat CPU  0 instructions:  397000000 cycles:  896109163 heartbeat IPC: 0.36706 cumulative IPC: 0.37615 (Simulation time: 0 hr 11 min 8 sec) 
Heartbeat CPU  0 instructions:  398000001 cycles:  898878560 heartbeat IPC: 0.36109 cumulative IPC: 0.37610 (Simulation time: 0 hr 11 min 9 sec) 
Heartbeat CPU  0 instructions:  399000002 cycles:  901632305 heartbeat IPC: 0.36314 cumulative IPC: 0.37605 (Simulation time: 0 hr 11 min 11 sec) 
Heartbeat CPU  0 instructions:  400000000 cycles:  904425247 heartbeat IPC: 0.35804 cumulative IPC: 0.37599 (Simulation time: 0 hr 11 min 13 sec) 
Heartbeat CPU  0 instructions:  401000000 cycles:  907158533 heartbeat IPC: 0.36586 cumulative IPC: 0.37595 (Simulation time: 0 hr 11 min 15 sec) 
Heartbeat CPU  0 instructions:  402000000 cycles:  909868890 heartbeat IPC: 0.36896 cumulative IPC: 0.37593 (Simulation time: 0 hr 11 min 17 sec) 
Heartbeat CPU  0 instructions:  403000001 cycles:  912390090 heartbeat IPC: 0.39664 cumulative IPC: 0.37599 (Simulation time: 0 hr 11 min 19 sec) 
Heartbeat CPU  0 instructions:  404000000 cycles:  914911833 heartbeat IPC: 0.39655 cumulative IPC: 0.37606 (Simulation time: 0 hr 11 min 21 sec) 
Heartbeat CPU  0 instructions:  405000000 cycles:  917052685 heartbeat IPC: 0.46710 cumulative IPC: 0.37630 (Simulation time: 0 hr 11 min 22 sec) 
Heartbeat CPU  0 instructions:  406000002 cycles:  919422558 heartbeat IPC: 0.42196 cumulative IPC: 0.37643 (Simulation time: 0 hr 11 min 24 sec) 
Heartbeat CPU  0 instructions:  407000000 cycles:  922043655 heartbeat IPC: 0.38152 cumulative IPC: 0.37645 (Simulation time: 0 hr 11 min 26 sec) 
Heartbeat CPU  0 instructions:  408000000 cycles:  924788414 heartbeat IPC: 0.36433 cumulative IPC: 0.37641 (Simulation time: 0 hr 11 min 28 sec) 
Heartbeat CPU  0 instructions:  409000002 cycles:  927663809 heartbeat IPC: 0.34778 cumulative IPC: 0.37631 (Simulation time: 0 hr 11 min 30 sec) 
Heartbeat CPU  0 instructions:  410000001 cycles:  930394976 heartbeat IPC: 0.36614 cumulative IPC: 0.37627 (Simulation time: 0 hr 11 min 31 sec) 
Heartbeat CPU  0 instructions:  411000000 cycles:  933104439 heartbeat IPC: 0.36908 cumulative IPC: 0.37625 (Simulation time: 0 hr 11 min 33 sec) 
Heartbeat CPU  0 instructions:  412000000 cycles:  935738479 heartbeat IPC: 0.37964 cumulative IPC: 0.37626 (Simulation time: 0 hr 11 min 35 sec) 
Heartbeat CPU  0 instructions:  413000000 cycles:  938505938 heartbeat IPC: 0.36134 cumulative IPC: 0.37621 (Simulation time: 0 hr 11 min 37 sec) 
Heartbeat CPU  0 instructions:  414000000 cycles:  941156025 heartbeat IPC: 0.37735 cumulative IPC: 0.37621 (Simulation time: 0 hr 11 min 39 sec) 
Heartbeat CPU  0 instructions:  415000000 cycles:  943861838 heartbeat IPC: 0.36957 cumulative IPC: 0.37619 (Simulation time: 0 hr 11 min 41 sec) 
Heartbeat CPU  0 instructions:  416000000 cycles:  946621876 heartbeat IPC: 0.36231 cumulative IPC: 0.37615 (Simulation time: 0 hr 11 min 43 sec) 
Heartbeat CPU  0 instructions:  417000003 cycles:  949261004 heartbeat IPC: 0.37891 cumulative IPC: 0.37616 (Simulation time: 0 hr 11 min 45 sec) 
Heartbeat CPU  0 instructions:  418000000 cycles:  952034240 heartbeat IPC: 0.36059 cumulative IPC: 0.37611 (Simulation time: 0 hr 11 min 46 sec) 
Heartbeat CPU  0 instructions:  419000000 cycles:  954830808 heartbeat IPC: 0.35758 cumulative IPC: 0.37604 (Simulation time: 0 hr 11 min 48 sec) 
Heartbeat CPU  0 instructions:  420000000 cycles:  957548700 heartbeat IPC: 0.36793 cumulative IPC: 0.37602 (Simulation time: 0 hr 11 min 50 sec) 
Heartbeat CPU  0 instructions:  421000000 cycles:  960334990 heartbeat IPC: 0.35890 cumulative IPC: 0.37596 (Simulation time: 0 hr 11 min 52 sec) 
Heartbeat CPU  0 instructions:  422000001 cycles:  963036336 heartbeat IPC: 0.37019 cumulative IPC: 0.37594 (Simulation time: 0 hr 11 min 54 sec) 
Heartbeat CPU  0 instructions:  423000000 cycles:  965530128 heartbeat IPC: 0.40100 cumulative IPC: 0.37602 (Simulation time: 0 hr 11 min 56 sec) 
Heartbeat CPU  0 instructions:  424000000 cycles:  967502138 heartbeat IPC: 0.50710 cumulative IPC: 0.37632 (Simulation time: 0 hr 11 min 57 sec) 
Heartbeat CPU  0 instructions:  425000001 cycles:  969924518 heartbeat IPC: 0.41282 cumulative IPC: 0.37642 (Simulation time: 0 hr 11 min 59 sec) 
Heartbeat CPU  0 instructions:  426000001 cycles:  972574388 heartbeat IPC: 0.37738 cumulative IPC: 0.37642 (Simulation time: 0 hr 12 min 1 sec) 
Heartbeat CPU  0 instructions:  427000000 cycles:  975291077 heartbeat IPC: 0.36809 cumulative IPC: 0.37640 (Simulation time: 0 hr 12 min 3 sec) 
Heartbeat CPU  0 instructions:  428000000 cycles:  978130567 heartbeat IPC: 0.35218 cumulative IPC: 0.37632 (Simulation time: 0 hr 12 min 5 sec) 
Heartbeat CPU  0 instructions:  429000001 cycles:  980920926 heartbeat IPC: 0.35838 cumulative IPC: 0.37626 (Simulation time: 0 hr 12 min 7 sec) 
Heartbeat CPU  0 instructions:  430000001 cycles:  983622008 heartbeat IPC: 0.37022 cumulative IPC: 0.37624 (Simulation time: 0 hr 12 min 8 sec) 
Heartbeat CPU  0 instructions:  431000000 cycles:  986304382 heartbeat IPC: 0.37280 cumulative IPC: 0.37623 (Simulation time: 0 hr 12 min 10 sec) 
Heartbeat CPU  0 instructions:  432000000 cycles:  989028794 heartbeat IPC: 0.36705 cumulative IPC: 0.37620 (Simulation time: 0 hr 12 min 12 sec) 
Heartbeat CPU  0 instructions:  433000001 cycles:  991794891 heartbeat IPC: 0.36152 cumulative IPC: 0.37616 (Simulation time: 0 hr 12 min 14 sec) 
Heartbeat CPU  0 instructions:  434000001 cycles:  994444460 heartbeat IPC: 0.37742 cumulative IPC: 0.37616 (Simulation time: 0 hr 12 min 16 sec) 
Heartbeat CPU  0 instructions:  435000000 cycles:  997153213 heartbeat IPC: 0.36917 cumulative IPC: 0.37614 (Simulation time: 0 hr 12 min 18 sec) 
Heartbeat CPU  0 instructions:  436000000 cycles:  999908615 heartbeat IPC: 0.36292 cumulative IPC: 0.37610 (Simulation time: 0 hr 12 min 20 sec) 
Heartbeat CPU  0 instructions:  437000000 cycles: 1002565156 heartbeat IPC: 0.37643 cumulative IPC: 0.37610 (Simulation time: 0 hr 12 min 21 sec) 
Heartbeat CPU  0 instructions:  438000000 cycles: 1005344109 heartbeat IPC: 0.35985 cumulative IPC: 0.37605 (Simulation time: 0 hr 12 min 23 sec) 
Heartbeat CPU  0 instructions:  439000003 cycles: 1008111452 heartbeat IPC: 0.36136 cumulative IPC: 0.37600 (Simulation time: 0 hr 12 min 25 sec) 
Heartbeat CPU  0 instructions:  440000000 cycles: 1010847650 heartbeat IPC: 0.36547 cumulative IPC: 0.37597 (Simulation time: 0 hr 12 min 27 sec) 
Heartbeat CPU  0 instructions:  441000001 cycles: 1013595074 heartbeat IPC: 0.36398 cumulative IPC: 0.37594 (Simulation time: 0 hr 12 min 29 sec) 
Heartbeat CPU  0 instructions:  442000000 cycles: 1016306414 heartbeat IPC: 0.36882 cumulative IPC: 0.37591 (Simulation time: 0 hr 12 min 31 sec) 
Heartbeat CPU  0 instructions:  443000002 cycles: 1018863378 heartbeat IPC: 0.39109 cumulative IPC: 0.37596 (Simulation time: 0 hr 12 min 33 sec) 
Heartbeat CPU  0 instructions:  444000000 cycles: 1021503719 heartbeat IPC: 0.37874 cumulative IPC: 0.37597 (Simulation time: 0 hr 12 min 35 sec) 
Heartbeat CPU  0 instructions:  445000000 cycles: 1024292349 heartbeat IPC: 0.35860 cumulative IPC: 0.37591 (Simulation time: 0 hr 12 min 36 sec) 
Heartbeat CPU  0 instructions:  446000003 cycles: 1027042418 heartbeat IPC: 0.36363 cumulative IPC: 0.37588 (Simulation time: 0 hr 12 min 38 sec) 
Heartbeat CPU  0 instructions:  447000002 cycles: 1029782683 heartbeat IPC: 0.36493 cumulative IPC: 0.37584 (Simulation time: 0 hr 12 min 40 sec) 
Heartbeat CPU  0 instructions:  448000000 cycles: 1032189648 heartbeat IPC: 0.41546 cumulative IPC: 0.37595 (Simulation time: 0 hr 12 min 42 sec) 
Heartbeat CPU  0 instructions:  449000000 cycles: 1034299722 heartbeat IPC: 0.47392 cumulative IPC: 0.37617 (Simulation time: 0 hr 12 min 44 sec) 
Heartbeat CPU  0 instructions:  450000000 cycles: 1036964732 heartbeat IPC: 0.37523 cumulative IPC: 0.37617 (Simulation time: 0 hr 12 min 45 sec) 
Heartbeat CPU  0 instructions:  451000000 cycles: 1039679496 heartbeat IPC: 0.36836 cumulative IPC: 0.37614 (Simulation time: 0 hr 12 min 47 sec) 
Heartbeat CPU  0 instructions:  452000000 cycles: 1042373053 heartbeat IPC: 0.37126 cumulative IPC: 0.37613 (Simulation time: 0 hr 12 min 49 sec) 
Heartbeat CPU  0 instructions:  453000000 cycles: 1045034063 heartbeat IPC: 0.37580 cumulative IPC: 0.37613 (Simulation time: 0 hr 12 min 51 sec) 
Heartbeat CPU  0 instructions:  454000001 cycles: 1047758949 heartbeat IPC: 0.36699 cumulative IPC: 0.37610 (Simulation time: 0 hr 12 min 53 sec) 
Heartbeat CPU  0 instructions:  455000000 cycles: 1050483820 heartbeat IPC: 0.36699 cumulative IPC: 0.37608 (Simulation time: 0 hr 12 min 55 sec) 
Heartbeat CPU  0 instructions:  456000000 cycles: 1053138510 heartbeat IPC: 0.37669 cumulative IPC: 0.37608 (Simulation time: 0 hr 12 min 57 sec) 
Heartbeat CPU  0 instructions:  457000003 cycles: 1055884601 heartbeat IPC: 0.36416 cumulative IPC: 0.37604 (Simulation time: 0 hr 12 min 58 sec) 
Heartbeat CPU  0 instructions:  458000003 cycles: 1058590020 heartbeat IPC: 0.36963 cumulative IPC: 0.37603 (Simulation time: 0 hr 13 min 0 sec) 
Heartbeat CPU  0 instructions:  459000001 cycles: 1061385828 heartbeat IPC: 0.35768 cumulative IPC: 0.37597 (Simulation time: 0 hr 13 min 2 sec) 
Heartbeat CPU  0 instructions:  460000000 cycles: 1064109840 heartbeat IPC: 0.36711 cumulative IPC: 0.37595 (Simulation time: 0 hr 13 min 4 sec) 
Heartbeat CPU  0 instructions:  461000002 cycles: 1066806657 heartbeat IPC: 0.37081 cumulative IPC: 0.37593 (Simulation time: 0 hr 13 min 6 sec) 
Heartbeat CPU  0 instructions:  462000003 cycles: 1069419306 heartbeat IPC: 0.38275 cumulative IPC: 0.37595 (Simulation time: 0 hr 13 min 8 sec) 
Heartbeat CPU  0 instructions:  463000001 cycles: 1071406358 heartbeat IPC: 0.50326 cumulative IPC: 0.37621 (Simulation time: 0 hr 13 min 9 sec) 
Heartbeat CPU  0 instructions:  464000000 cycles: 1074309700 heartbeat IPC: 0.34443 cumulative IPC: 0.37612 (Simulation time: 0 hr 13 min 11 sec) 
Heartbeat CPU  0 instructions:  465000001 cycles: 1077120232 heartbeat IPC: 0.35580 cumulative IPC: 0.37606 (Simulation time: 0 hr 13 min 13 sec) 
Heartbeat CPU  0 instructions:  466000000 cycles: 1079563213 heartbeat IPC: 0.40934 cumulative IPC: 0.37614 (Simulation time: 0 hr 13 min 15 sec) 
Heartbeat CPU  0 instructions:  467000000 cycles: 1082196364 heartbeat IPC: 0.37977 cumulative IPC: 0.37615 (Simulation time: 0 hr 13 min 17 sec) 
Heartbeat CPU  0 instructions:  468000000 cycles: 1084908163 heartbeat IPC: 0.36876 cumulative IPC: 0.37613 (Simulation time: 0 hr 13 min 18 sec) 
Heartbeat CPU  0 instructions:  469000001 cycles: 1087602001 heartbeat IPC: 0.37122 cumulative IPC: 0.37612 (Simulation time: 0 hr 13 min 20 sec) 
Heartbeat CPU  0 instructions:  470000001 cycles: 1090300157 heartbeat IPC: 0.37062 cumulative IPC: 0.37610 (Simulation time: 0 hr 13 min 22 sec) 
Heartbeat CPU  0 instructions:  471000000 cycles: 1092921724 heartbeat IPC: 0.38145 cumulative IPC: 0.37612 (Simulation time: 0 hr 13 min 24 sec) 
Heartbeat CPU  0 instructions:  472000000 cycles: 1095688959 heartbeat IPC: 0.36137 cumulative IPC: 0.37608 (Simulation time: 0 hr 13 min 26 sec) 
Heartbeat CPU  0 instructions:  473000002 cycles: 1098352778 heartbeat IPC: 0.37540 cumulative IPC: 0.37607 (Simulation time: 0 hr 13 min 28 sec) 
Heartbeat CPU  0 instructions:  474000001 cycles: 1101063756 heartbeat IPC: 0.36887 cumulative IPC: 0.37605 (Simulation time: 0 hr 13 min 30 sec) 
Heartbeat CPU  0 instructions:  475000002 cycles: 1103823341 heartbeat IPC: 0.36237 cumulative IPC: 0.37602 (Simulation time: 0 hr 13 min 32 sec) 
Heartbeat CPU  0 instructions:  476000000 cycles: 1106525888 heartbeat IPC: 0.37002 cumulative IPC: 0.37600 (Simulation time: 0 hr 13 min 33 sec) 
Heartbeat CPU  0 instructions:  477000001 cycles: 1109307216 heartbeat IPC: 0.35954 cumulative IPC: 0.37595 (Simulation time: 0 hr 13 min 35 sec) 
Heartbeat CPU  0 instructions:  478000001 cycles: 1112011381 heartbeat IPC: 0.36980 cumulative IPC: 0.37594 (Simulation time: 0 hr 13 min 37 sec) 
Heartbeat CPU  0 instructions:  479000002 cycles: 1114692374 heartbeat IPC: 0.37300 cumulative IPC: 0.37593 (Simulation time: 0 hr 13 min 39 sec) 
Heartbeat CPU  0 instructions:  480000000 cycles: 1117473431 heartbeat IPC: 0.35957 cumulative IPC: 0.37588 (Simulation time: 0 hr 13 min 41 sec) 
Heartbeat CPU  0 instructions:  481000000 cycles: 1120272668 heartbeat IPC: 0.35724 cumulative IPC: 0.37583 (Simulation time: 0 hr 13 min 43 sec) 
Heartbeat CPU  0 instructions:  482000000 cycles: 1122226949 heartbeat IPC: 0.51170 cumulative IPC: 0.37609 (Simulation time: 0 hr 13 min 44 sec) 
Heartbeat CPU  0 instructions:  483000003 cycles: 1125033625 heartbeat IPC: 0.35629 cumulative IPC: 0.37604 (Simulation time: 0 hr 13 min 46 sec) 
Heartbeat CPU  0 instructions:  484000000 cycles: 1127794254 heartbeat IPC: 0.36224 cumulative IPC: 0.37600 (Simulation time: 0 hr 13 min 48 sec) 
Heartbeat CPU  0 instructions:  485000001 cycles: 1130629856 heartbeat IPC: 0.35266 cumulative IPC: 0.37594 (Simulation time: 0 hr 13 min 50 sec) 
Heartbeat CPU  0 instructions:  486000000 cycles: 1133336514 heartbeat IPC: 0.36946 cumulative IPC: 0.37592 (Simulation time: 0 hr 13 min 52 sec) 
Heartbeat CPU  0 instructions:  487000002 cycles: 1135722940 heartbeat IPC: 0.41904 cumulative IPC: 0.37602 (Simulation time: 0 hr 13 min 53 sec) 
Heartbeat CPU  0 instructions:  488000000 cycles: 1138539342 heartbeat IPC: 0.35506 cumulative IPC: 0.37596 (Simulation time: 0 hr 13 min 55 sec) 
Heartbeat CPU  0 instructions:  489000001 cycles: 1141341700 heartbeat IPC: 0.35684 cumulative IPC: 0.37591 (Simulation time: 0 hr 13 min 57 sec) 
Heartbeat CPU  0 instructions:  490000001 cycles: 1143982192 heartbeat IPC: 0.37872 cumulative IPC: 0.37592 (Simulation time: 0 hr 13 min 59 sec) 
Heartbeat CPU  0 instructions:  491000001 cycles: 1146674115 heartbeat IPC: 0.37148 cumulative IPC: 0.37591 (Simulation time: 0 hr 14 min 1 sec) 
Heartbeat CPU  0 instructions:  492000000 cycles: 1149351068 heartbeat IPC: 0.37356 cumulative IPC: 0.37590 (Simulation time: 0 hr 14 min 3 sec) 
Heartbeat CPU  0 instructions:  493000000 cycles: 1152118828 heartbeat IPC: 0.36130 cumulative IPC: 0.37586 (Simulation time: 0 hr 14 min 5 sec) 
Heartbeat CPU  0 instructions:  494000000 cycles: 1154824844 heartbeat IPC: 0.36955 cumulative IPC: 0.37585 (Simulation time: 0 hr 14 min 7 sec) 
Heartbeat CPU  0 instructions:  495000000 cycles: 1157631125 heartbeat IPC: 0.35634 cumulative IPC: 0.37579 (Simulation time: 0 hr 14 min 8 sec) 
Heartbeat CPU  0 instructions:  496000000 cycles: 1160344634 heartbeat IPC: 0.36853 cumulative IPC: 0.37578 (Simulation time: 0 hr 14 min 10 sec) 
Heartbeat CPU  0 instructions:  497000000 cycles: 1163034060 heartbeat IPC: 0.37183 cumulative IPC: 0.37577 (Simulation time: 0 hr 14 min 13 sec) 
Heartbeat CPU  0 instructions:  498000001 cycles: 1165280832 heartbeat IPC: 0.44508 cumulative IPC: 0.37591 (Simulation time: 0 hr 14 min 15 sec) 
Heartbeat CPU  0 instructions:  499000001 cycles: 1167649236 heartbeat IPC: 0.42223 cumulative IPC: 0.37602 (Simulation time: 0 hr 14 min 17 sec) 
Heartbeat CPU  0 instructions:  500000000 cycles: 1170046352 heartbeat IPC: 0.41717 cumulative IPC: 0.37611 (Simulation time: 0 hr 14 min 19 sec) 
Heartbeat CPU  0 instructions:  501000001 cycles: 1172718729 heartbeat IPC: 0.37420 cumulative IPC: 0.37610 (Simulation time: 0 hr 14 min 21 sec) 
Heartbeat CPU  0 instructions:  502000003 cycles: 1175522303 heartbeat IPC: 0.35669 cumulative IPC: 0.37605 (Simulation time: 0 hr 14 min 24 sec) 
Heartbeat CPU  0 instructions:  503000000 cycles: 1177203996 heartbeat IPC: 0.59464 cumulative IPC: 0.37640 (Simulation time: 0 hr 14 min 26 sec) 
Heartbeat CPU  0 instructions:  504000000 cycles: 1178172685 heartbeat IPC: 1.03232 cumulative IPC: 0.37699 (Simulation time: 0 hr 14 min 29 sec) 
Heartbeat CPU  0 instructions:  505000000 cycles: 1179054146 heartbeat IPC: 1.13448 cumulative IPC: 0.37761 (Simulation time: 0 hr 14 min 31 sec) 
Heartbeat CPU  0 instructions:  506000000 cycles: 1179894768 heartbeat IPC: 1.18960 cumulative IPC: 0.37825 (Simulation time: 0 hr 14 min 33 sec) 
Heartbeat CPU  0 instructions:  507000002 cycles: 1180768541 heartbeat IPC: 1.14446 cumulative IPC: 0.37887 (Simulation time: 0 hr 14 min 35 sec) 
Heartbeat CPU  0 instructions:  508000000 cycles: 1182133453 heartbeat IPC: 0.73265 cumulative IPC: 0.37932 (Simulation time: 0 hr 14 min 38 sec) 
Heartbeat CPU  0 instructions:  509000003 cycles: 1183694796 heartbeat IPC: 0.64048 cumulative IPC: 0.37970 (Simulation time: 0 hr 14 min 40 sec) 
Heartbeat CPU  0 instructions:  510000002 cycles: 1185268287 heartbeat IPC: 0.63553 cumulative IPC: 0.38007 (Simulation time: 0 hr 14 min 43 sec) 
Heartbeat CPU  0 instructions:  511000001 cycles: 1187138010 heartbeat IPC: 0.53484 cumulative IPC: 0.38034 (Simulation time: 0 hr 14 min 46 sec) 
Heartbeat CPU  0 instructions:  512000000 cycles: 1189458804 heartbeat IPC: 0.43089 cumulative IPC: 0.38045 (Simulation time: 0 hr 14 min 49 sec) 
Heartbeat CPU  0 instructions:  513000002 cycles: 1191802095 heartbeat IPC: 0.42675 cumulative IPC: 0.38055 (Simulation time: 0 hr 14 min 52 sec) 
Heartbeat CPU  0 instructions:  514000001 cycles: 1193259859 heartbeat IPC: 0.68598 cumulative IPC: 0.38096 (Simulation time: 0 hr 14 min 54 sec) 
Heartbeat CPU  0 instructions:  515000001 cycles: 1194106653 heartbeat IPC: 1.18092 cumulative IPC: 0.38158 (Simulation time: 0 hr 14 min 56 sec) 
Heartbeat CPU  0 instructions:  516000000 cycles: 1194935383 heartbeat IPC: 1.20666 cumulative IPC: 0.38221 (Simulation time: 0 hr 14 min 58 sec) 
Heartbeat CPU  0 instructions:  517000001 cycles: 1195767592 heartbeat IPC: 1.20162 cumulative IPC: 0.38284 (Simulation time: 0 hr 15 min 0 sec) 
Heartbeat CPU  0 instructions:  518000002 cycles: 1197344762 heartbeat IPC: 0.63405 cumulative IPC: 0.38320 (Simulation time: 0 hr 15 min 3 sec) 
Heartbeat CPU  0 instructions:  519000003 cycles: 1198972501 heartbeat IPC: 0.61435 cumulative IPC: 0.38354 (Simulation time: 0 hr 15 min 5 sec) 
Heartbeat CPU  0 instructions:  520000000 cycles: 1200561419 heartbeat IPC: 0.62936 cumulative IPC: 0.38390 (Simulation time: 0 hr 15 min 8 sec) 
Heartbeat CPU  0 instructions:  521000001 cycles: 1202648641 heartbeat IPC: 0.47911 cumulative IPC: 0.38408 (Simulation time: 0 hr 15 min 11 sec) 
Heartbeat CPU  0 instructions:  522000003 cycles: 1204993464 heartbeat IPC: 0.42647 cumulative IPC: 0.38417 (Simulation time: 0 hr 15 min 14 sec) 
Heartbeat CPU  0 instructions:  523000000 cycles: 1207221441 heartbeat IPC: 0.44884 cumulative IPC: 0.38430 (Simulation time: 0 hr 15 min 16 sec) 
Heartbeat CPU  0 instructions:  524000000 cycles: 1209321209 heartbeat IPC: 0.47624 cumulative IPC: 0.38448 (Simulation time: 0 hr 15 min 18 sec) 
Heartbeat CPU  0 instructions:  525000002 cycles: 1211892584 heartbeat IPC: 0.38890 cumulative IPC: 0.38449 (Simulation time: 0 hr 15 min 20 sec) 
Heartbeat CPU  0 instructions:  526000000 cycles: 1214206973 heartbeat IPC: 0.43208 cumulative IPC: 0.38459 (Simulation time: 0 hr 15 min 22 sec) 
Heartbeat CPU  0 instructions:  527000001 cycles: 1216986942 heartbeat IPC: 0.35972 cumulative IPC: 0.38452 (Simulation time: 0 hr 15 min 24 sec) 
Heartbeat CPU  0 instructions:  528000000 cycles: 1219255697 heartbeat IPC: 0.44077 cumulative IPC: 0.38464 (Simulation time: 0 hr 15 min 25 sec) 
Heartbeat CPU  0 instructions:  529000000 cycles: 1221216392 heartbeat IPC: 0.51002 cumulative IPC: 0.38486 (Simulation time: 0 hr 15 min 27 sec) 
Heartbeat CPU  0 instructions:  530000003 cycles: 1224037926 heartbeat IPC: 0.35442 cumulative IPC: 0.38478 (Simulation time: 0 hr 15 min 29 sec) 
Heartbeat CPU  0 instructions:  531000001 cycles: 1226457709 heartbeat IPC: 0.41326 cumulative IPC: 0.38484 (Simulation time: 0 hr 15 min 31 sec) 
Heartbeat CPU  0 instructions:  532000000 cycles: 1228922316 heartbeat IPC: 0.40574 cumulative IPC: 0.38489 (Simulation time: 0 hr 15 min 33 sec) 
Heartbeat CPU  0 instructions:  533000002 cycles: 1231673573 heartbeat IPC: 0.36347 cumulative IPC: 0.38484 (Simulation time: 0 hr 15 min 35 sec) 
Heartbeat CPU  0 instructions:  534000000 cycles: 1234038753 heartbeat IPC: 0.42280 cumulative IPC: 0.38492 (Simulation time: 0 hr 15 min 37 sec) 
Heartbeat CPU  0 instructions:  535000000 cycles: 1236136470 heartbeat IPC: 0.47671 cumulative IPC: 0.38509 (Simulation time: 0 hr 15 min 38 sec) 
Heartbeat CPU  0 instructions:  536000000 cycles: 1238717147 heartbeat IPC: 0.38750 cumulative IPC: 0.38509 (Simulation time: 0 hr 15 min 40 sec) 
Heartbeat CPU  0 instructions:  537000001 cycles: 1241098188 heartbeat IPC: 0.41998 cumulative IPC: 0.38517 (Simulation time: 0 hr 15 min 42 sec) 
Heartbeat CPU  0 instructions:  538000001 cycles: 1243630262 heartbeat IPC: 0.39493 cumulative IPC: 0.38519 (Simulation time: 0 hr 15 min 44 sec) 
Heartbeat CPU  0 instructions:  539000000 cycles: 1246139545 heartbeat IPC: 0.39852 cumulative IPC: 0.38522 (Simulation time: 0 hr 15 min 46 sec) 
Heartbeat CPU  0 instructions:  540000000 cycles: 1248797433 heartbeat IPC: 0.37624 cumulative IPC: 0.38520 (Simulation time: 0 hr 15 min 48 sec) 
Heartbeat CPU  0 instructions:  541000001 cycles: 1251289789 heartbeat IPC: 0.40123 cumulative IPC: 0.38523 (Simulation time: 0 hr 15 min 50 sec) 
Heartbeat CPU  0 instructions:  542000002 cycles: 1253640561 heartbeat IPC: 0.42539 cumulative IPC: 0.38531 (Simulation time: 0 hr 15 min 52 sec) 
Heartbeat CPU  0 instructions:  543000003 cycles: 1256231016 heartbeat IPC: 0.38603 cumulative IPC: 0.38532 (Simulation time: 0 hr 15 min 53 sec) 
Heartbeat CPU  0 instructions:  544000000 cycles: 1258786198 heartbeat IPC: 0.39136 cumulative IPC: 0.38533 (Simulation time: 0 hr 15 min 55 sec) 
Heartbeat CPU  0 instructions:  545000000 cycles: 1260994256 heartbeat IPC: 0.45289 cumulative IPC: 0.38546 (Simulation time: 0 hr 15 min 57 sec) 
Heartbeat CPU  0 instructions:  546000000 cycles: 1263312049 heartbeat IPC: 0.43144 cumulative IPC: 0.38555 (Simulation time: 0 hr 15 min 59 sec) 
Heartbeat CPU  0 instructions:  547000000 cycles: 1265768349 heartbeat IPC: 0.40712 cumulative IPC: 0.38560 (Simulation time: 0 hr 16 min 1 sec) 
Heartbeat CPU  0 instructions:  548000000 cycles: 1268434020 heartbeat IPC: 0.37514 cumulative IPC: 0.38557 (Simulation time: 0 hr 16 min 3 sec) 
Heartbeat CPU  0 instructions:  549000000 cycles: 1271028721 heartbeat IPC: 0.38540 cumulative IPC: 0.38557 (Simulation time: 0 hr 16 min 5 sec) 
Heartbeat CPU  0 instructions:  550000001 cycles: 1273639363 heartbeat IPC: 0.38305 cumulative IPC: 0.38557 (Simulation time: 0 hr 16 min 7 sec) 
Heartbeat CPU  0 instructions:  551000001 cycles: 1276289505 heartbeat IPC: 0.37734 cumulative IPC: 0.38555 (Simulation time: 0 hr 16 min 9 sec) 
Heartbeat CPU  0 instructions:  552000000 cycles: 1278931941 heartbeat IPC: 0.37844 cumulative IPC: 0.38553 (Simulation time: 0 hr 16 min 11 sec) 
Heartbeat CPU  0 instructions:  553000002 cycles: 1281502584 heartbeat IPC: 0.38901 cumulative IPC: 0.38554 (Simulation time: 0 hr 16 min 13 sec) 
Heartbeat CPU  0 instructions:  554000000 cycles: 1284168487 heartbeat IPC: 0.37511 cumulative IPC: 0.38552 (Simulation time: 0 hr 16 min 15 sec) 
Heartbeat CPU  0 instructions:  555000000 cycles: 1286927987 heartbeat IPC: 0.36238 cumulative IPC: 0.38546 (Simulation time: 0 hr 16 min 17 sec) 
Heartbeat CPU  0 instructions:  556000000 cycles: 1289446419 heartbeat IPC: 0.39707 cumulative IPC: 0.38549 (Simulation time: 0 hr 16 min 19 sec) 
Heartbeat CPU  0 instructions:  557000000 cycles: 1292181714 heartbeat IPC: 0.36559 cumulative IPC: 0.38544 (Simulation time: 0 hr 16 min 20 sec) 
Heartbeat CPU  0 instructions:  558000000 cycles: 1294817673 heartbeat IPC: 0.37937 cumulative IPC: 0.38543 (Simulation time: 0 hr 16 min 22 sec) 
Heartbeat CPU  0 instructions:  559000000 cycles: 1297557244 heartbeat IPC: 0.36502 cumulative IPC: 0.38538 (Simulation time: 0 hr 16 min 24 sec) 
Heartbeat CPU  0 instructions:  560000000 cycles: 1300281568 heartbeat IPC: 0.36706 cumulative IPC: 0.38534 (Simulation time: 0 hr 16 min 26 sec) 
Heartbeat CPU  0 instructions:  561000001 cycles: 1302934898 heartbeat IPC: 0.37689 cumulative IPC: 0.38532 (Simulation time: 0 hr 16 min 28 sec) 
Heartbeat CPU  0 instructions:  562000000 cycles: 1305615140 heartbeat IPC: 0.37310 cumulative IPC: 0.38529 (Simulation time: 0 hr 16 min 30 sec) 
Heartbeat CPU  0 instructions:  563000001 cycles: 1308393896 heartbeat IPC: 0.35987 cumulative IPC: 0.38523 (Simulation time: 0 hr 16 min 32 sec) 
Heartbeat CPU  0 instructions:  564000000 cycles: 1310893360 heartbeat IPC: 0.40009 cumulative IPC: 0.38526 (Simulation time: 0 hr 16 min 34 sec) 
Heartbeat CPU  0 instructions:  565000002 cycles: 1313605846 heartbeat IPC: 0.36867 cumulative IPC: 0.38523 (Simulation time: 0 hr 16 min 36 sec) 
Heartbeat CPU  0 instructions:  566000000 cycles: 1316219461 heartbeat IPC: 0.38261 cumulative IPC: 0.38522 (Simulation time: 0 hr 16 min 38 sec) 
Heartbeat CPU  0 instructions:  567000003 cycles: 1318881491 heartbeat IPC: 0.37565 cumulative IPC: 0.38520 (Simulation time: 0 hr 16 min 40 sec) 
Heartbeat CPU  0 instructions:  568000000 cycles: 1321560287 heartbeat IPC: 0.37330 cumulative IPC: 0.38517 (Simulation time: 0 hr 16 min 43 sec) 
Heartbeat CPU  0 instructions:  569000002 cycles: 1324367108 heartbeat IPC: 0.35628 cumulative IPC: 0.38511 (Simulation time: 0 hr 16 min 45 sec) 
Heartbeat CPU  0 instructions:  570000001 cycles: 1327100347 heartbeat IPC: 0.36587 cumulative IPC: 0.38506 (Simulation time: 0 hr 16 min 47 sec) 
Heartbeat CPU  0 instructions:  571000001 cycles: 1329821315 heartbeat IPC: 0.36752 cumulative IPC: 0.38503 (Simulation time: 0 hr 16 min 49 sec) 
Heartbeat CPU  0 instructions:  572000000 cycles: 1332613796 heartbeat IPC: 0.35810 cumulative IPC: 0.38496 (Simulation time: 0 hr 16 min 51 sec) 
Heartbeat CPU  0 instructions:  573000000 cycles: 1335358810 heartbeat IPC: 0.36430 cumulative IPC: 0.38492 (Simulation time: 0 hr 16 min 53 sec) 
Heartbeat CPU  0 instructions:  574000000 cycles: 1338136300 heartbeat IPC: 0.36004 cumulative IPC: 0.38486 (Simulation time: 0 hr 16 min 55 sec) 
Heartbeat CPU  0 instructions:  575000002 cycles: 1340912517 heartbeat IPC: 0.36020 cumulative IPC: 0.38481 (Simulation time: 0 hr 16 min 57 sec) 
Heartbeat CPU  0 instructions:  576000000 cycles: 1343612792 heartbeat IPC: 0.37033 cumulative IPC: 0.38477 (Simulation time: 0 hr 16 min 59 sec) 
Heartbeat CPU  0 instructions:  577000002 cycles: 1346342108 heartbeat IPC: 0.36639 cumulative IPC: 0.38473 (Simulation time: 0 hr 17 min 1 sec) 
Heartbeat CPU  0 instructions:  578000001 cycles: 1348930645 heartbeat IPC: 0.38632 cumulative IPC: 0.38474 (Simulation time: 0 hr 17 min 3 sec) 
Heartbeat CPU  0 instructions:  579000002 cycles: 1351616901 heartbeat IPC: 0.37227 cumulative IPC: 0.38471 (Simulation time: 0 hr 17 min 5 sec) 
Heartbeat CPU  0 instructions:  580000000 cycles: 1354299578 heartbeat IPC: 0.37276 cumulative IPC: 0.38469 (Simulation time: 0 hr 17 min 7 sec) 
Heartbeat CPU  0 instructions:  581000003 cycles: 1356963123 heartbeat IPC: 0.37544 cumulative IPC: 0.38467 (Simulation time: 0 hr 17 min 9 sec) 
Heartbeat CPU  0 instructions:  582000001 cycles: 1359726809 heartbeat IPC: 0.36183 cumulative IPC: 0.38462 (Simulation time: 0 hr 17 min 12 sec) 
Heartbeat CPU  0 instructions:  583000000 cycles: 1362380332 heartbeat IPC: 0.37686 cumulative IPC: 0.38460 (Simulation time: 0 hr 17 min 14 sec) 
Heartbeat CPU  0 instructions:  584000000 cycles: 1365004850 heartbeat IPC: 0.38102 cumulative IPC: 0.38459 (Simulation time: 0 hr 17 min 16 sec) 
Heartbeat CPU  0 instructions:  585000002 cycles: 1367733184 heartbeat IPC: 0.36652 cumulative IPC: 0.38455 (Simulation time: 0 hr 17 min 18 sec) 
Heartbeat CPU  0 instructions:  586000000 cycles: 1370426692 heartbeat IPC: 0.37126 cumulative IPC: 0.38452 (Simulation time: 0 hr 17 min 20 sec) 
Heartbeat CPU  0 instructions:  587000000 cycles: 1372932542 heartbeat IPC: 0.39907 cumulative IPC: 0.38455 (Simulation time: 0 hr 17 min 22 sec) 
Heartbeat CPU  0 instructions:  588000000 cycles: 1375576991 heartbeat IPC: 0.37815 cumulative IPC: 0.38454 (Simulation time: 0 hr 17 min 24 sec) 
Heartbeat CPU  0 instructions:  589000002 cycles: 1378132215 heartbeat IPC: 0.39136 cumulative IPC: 0.38455 (Simulation time: 0 hr 17 min 26 sec) 
Heartbeat CPU  0 instructions:  590000000 cycles: 1380743308 heartbeat IPC: 0.38298 cumulative IPC: 0.38455 (Simulation time: 0 hr 17 min 28 sec) 
Heartbeat CPU  0 instructions:  591000000 cycles: 1383207805 heartbeat IPC: 0.40576 cumulative IPC: 0.38459 (Simulation time: 0 hr 17 min 30 sec) 
Heartbeat CPU  0 instructions:  592000000 cycles: 1385918010 heartbeat IPC: 0.36898 cumulative IPC: 0.38456 (Simulation time: 0 hr 17 min 32 sec) 
Heartbeat CPU  0 instructions:  593000001 cycles: 1388596924 heartbeat IPC: 0.37329 cumulative IPC: 0.38453 (Simulation time: 0 hr 17 min 34 sec) 
Heartbeat CPU  0 instructions:  594000000 cycles: 1391180352 heartbeat IPC: 0.38708 cumulative IPC: 0.38454 (Simulation time: 0 hr 17 min 36 sec) 
Heartbeat CPU  0 instructions:  595000002 cycles: 1393908925 heartbeat IPC: 0.36649 cumulative IPC: 0.38450 (Simulation time: 0 hr 17 min 38 sec) 
Heartbeat CPU  0 instructions:  596000000 cycles: 1396270770 heartbeat IPC: 0.42340 cumulative IPC: 0.38457 (Simulation time: 0 hr 17 min 39 sec) 
Heartbeat CPU  0 instructions:  597000000 cycles: 1398688531 heartbeat IPC: 0.41361 cumulative IPC: 0.38463 (Simulation time: 0 hr 17 min 41 sec) 
Heartbeat CPU  0 instructions:  598000000 cycles: 1401169590 heartbeat IPC: 0.40305 cumulative IPC: 0.38466 (Simulation time: 0 hr 17 min 44 sec) 
Heartbeat CPU  0 instructions:  599000001 cycles: 1403847676 heartbeat IPC: 0.37340 cumulative IPC: 0.38464 (Simulation time: 0 hr 17 min 46 sec) 
Heartbeat CPU  0 instructions:  600000000 cycles: 1406444971 heartbeat IPC: 0.38502 cumulative IPC: 0.38464 (Simulation time: 0 hr 17 min 48 sec) 
Finished CPU 0 instructions: 500000000 cycles: 1299919211 cumulative IPC: 0.38464 (Simulation time: 0 hr 17 min 48 sec) 

ChampSim completed all CPUs

[ROI Statistics]
Core_0_instructions 500000000
Core_0_cycles 1299919211
Core_0_IPC 0.38464

Core_0_branch_prediction_accuracy 85.44512
Core_0_branch_MPKI 23.17008
Core_0_average_ROB_occupancy_at_mispredict 40.38807

Core_0_L1D_total_access 157632328
Core_0_L1D_total_hit 155564896
Core_0_L1D_total_miss 2067432
Core_0_L1D_loads 90302803
Core_0_L1D_load_hit 89590171
Core_0_L1D_load_miss 712632
Core_0_L1D_RFOs 67329525
Core_0_L1D_RFO_hit 65974725
Core_0_L1D_RFO_miss 1354800
Core_0_L1D_prefetches 0
Core_0_L1D_prefetch_hit 0
Core_0_L1D_prefetch_miss 0
Core_0_L1D_writebacks 0
Core_0_L1D_writeback_hit 0
Core_0_L1D_writeback_miss 0
Core_0_L1D_prefetch_requested 0
Core_0_L1D_prefetch_dropped 0
Core_0_L1D_prefetch_issued 0
Core_0_L1D_prefetch_filled 0
Core_0_L1D_prefetch_useful 0
Core_0_L1D_prefetch_useless 0
Core_0_L1D_prefetch_late 0
Core_0_L1D_average_miss_latency 246.42461

Core_0_L1D_rq_access 127065972
Core_0_L1D_rq_forward 0
Core_0_L1D_rq_merged 36627742
Core_0_L1D_rq_to_cache 90437931
Core_0_L1D_rq_full 0

Core_0_L1D_wq_access 71549319
Core_0_L1D_wq_forward 299
Core_0_L1D_wq_merged 408615
Core_0_L1D_wq_to_cache 71140704
Core_0_L1D_wq_full 19303059

Core_0_L1D_pq_access 0
Core_0_L1D_pq_forward 0
Core_0_L1D_pq_merged 0
Core_0_L1D_pq_to_cache 0
Core_0_L1D_pq_full 0

Core_0_L1D_acc_epochs 1367906
Core_0_L1D_acc_level_0 1367906
Core_0_L1D_acc_level_1 0
Core_0_L1D_acc_level_2 0
Core_0_L1D_acc_level_3 0
Core_0_L1D_acc_level_4 0
Core_0_L1D_acc_level_5 0
Core_0_L1D_acc_level_6 0
Core_0_L1D_acc_level_7 0
Core_0_L1D_acc_level_8 0
Core_0_L1D_acc_level_9 0

Core_0_L1I_total_access 98631749
Core_0_L1I_total_hit 97012186
Core_0_L1I_total_miss 1619563
Core_0_L1I_loads 98631749
Core_0_L1I_load_hit 97012186
Core_0_L1I_load_miss 1619563
Core_0_L1I_RFOs 0
Core_0_L1I_RFO_hit 0
Core_0_L1I_RFO_miss 0
Core_0_L1I_prefetches 0
Core_0_L1I_prefetch_hit 0
Core_0_L1I_prefetch_miss 0
Core_0_L1I_writebacks 0
Core_0_L1I_writeback_hit 0
Core_0_L1I_writeback_miss 0
Core_0_L1I_prefetch_requested 0
Core_0_L1I_prefetch_dropped 0
Core_0_L1I_prefetch_issued 0
Core_0_L1I_prefetch_filled 0
Core_0_L1I_prefetch_useful 0
Core_0_L1I_prefetch_useless 0
Core_0_L1I_prefetch_late 0
Core_0_L1I_average_miss_latency 12.58622

Core_0_L1I_rq_access 499999979
Core_0_L1I_rq_forward 0
Core_0_L1I_rq_merged 400787322
Core_0_L1I_rq_to_cache 99212657
Core_0_L1I_rq_full 0

Core_0_L1I_wq_access 0
Core_0_L1I_wq_forward 0
Core_0_L1I_wq_merged 0
Core_0_L1I_wq_to_cache 0
Core_0_L1I_wq_full 0

Core_0_L1I_pq_access 0
Core_0_L1I_pq_forward 0
Core_0_L1I_pq_merged 0
Core_0_L1I_pq_to_cache 0
Core_0_L1I_pq_full 0

Core_0_L1I_acc_epochs 1367906
Core_0_L1I_acc_level_0 1367906
Core_0_L1I_acc_level_1 0
Core_0_L1I_acc_level_2 0
Core_0_L1I_acc_level_3 0
Core_0_L1I_acc_level_4 0
Core_0_L1I_acc_level_5 0
Core_0_L1I_acc_level_6 0
Core_0_L1I_acc_level_7 0
Core_0_L1I_acc_level_8 0
Core_0_L1I_acc_level_9 0

Core_0_L2C_total_access 5820186
Core_0_L2C_total_hit 4649369
Core_0_L2C_total_miss 1170817
Core_0_L2C_loads 2332189
Core_0_L2C_load_hit 1983985
Core_0_L2C_load_miss 348204
Core_0_L2C_RFOs 1354773
Core_0_L2C_RFO_hit 539794
Core_0_L2C_RFO_miss 814979
Core_0_L2C_prefetches 537953
Core_0_L2C_prefetch_hit 532409
Core_0_L2C_prefetch_miss 5544
Core_0_L2C_writebacks 1595271
Core_0_L2C_writeback_hit 1593181
Core_0_L2C_writeback_miss 2090
Core_0_L2C_prefetch_requested 1343471
Core_0_L2C_prefetch_dropped 0
Core_0_L2C_prefetch_issued 1343471
Core_0_L2C_prefetch_filled 15982
Core_0_L2C_prefetch_useful 15821
Core_0_L2C_prefetch_useless 161
Core_0_L2C_prefetch_late 2713
Core_0_L2C_average_miss_latency 411.66644

Core_0_L2C_rq_access 3686995
Core_0_L2C_rq_forward 0
Core_0_L2C_rq_merged 0
Core_0_L2C_rq_to_cache 3686962
Core_0_L2C_rq_full 0

Core_0_L2C_wq_access 1595271
Core_0_L2C_wq_forward 33
Core_0_L2C_wq_merged 0
Core_0_L2C_wq_to_cache 1595271
Core_0_L2C_wq_full 0

Core_0_L2C_pq_access 1343471
Core_0_L2C_pq_forward 0
Core_0_L2C_pq_merged 235753
Core_0_L2C_pq_to_cache 1107718
Core_0_L2C_pq_full 0

Core_0_L2C_acc_epochs 1367906
Core_0_L2C_acc_level_0 1365919
Core_0_L2C_acc_level_1 239
Core_0_L2C_acc_level_2 215
Core_0_L2C_acc_level_3 70
Core_0_L2C_acc_level_4 114
Core_0_L2C_acc_level_5 208
Core_0_L2C_acc_level_6 50
Core_0_L2C_acc_level_7 145
Core_0_L2C_acc_level_8 147
Core_0_L2C_acc_level_9 799

Core_0_LLC_total_access 2363945
Core_0_LLC_total_hit 734377
Core_0_LLC_total_miss 1629568
Core_0_LLC_loads 345492
Core_0_LLC_load_hit 213890
Core_0_LLC_load_miss 131602
Core_0_LLC_RFOs 814979
Core_0_LLC_RFO_hit 65211
Core_0_LLC_RFO_miss 749768
Core_0_LLC_prefetches 233830
Core_0_LLC_prefetch_hit 175699
Core_0_LLC_prefetch_miss 58131
Core_0_LLC_writebacks 969644
Core_0_LLC_writeback_hit 279577
Core_0_LLC_writeback_miss 690067
Core_0_LLC_prefetch_requested 0
Core_0_LLC_prefetch_dropped 0
Core_0_LLC_prefetch_issued 0
Core_0_LLC_prefetch_filled 80514
Core_0_LLC_prefetch_useful 49367
Core_0_LLC_prefetch_useless 28108
Core_0_LLC_prefetch_late 587
Core_0_LLC_average_miss_latency 280.12270

Core_0_LLC_rq_access 1160471
Core_0_LLC_rq_forward 0
Core_0_LLC_rq_merged 0
Core_0_LLC_rq_to_cache 1160471
Core_0_LLC_rq_full 0

Core_0_LLC_wq_access 969644
Core_0_LLC_wq_forward 1
Core_0_LLC_wq_merged 0
Core_0_LLC_wq_to_cache 969644
Core_0_LLC_wq_full 0

Core_0_LLC_pq_access 388223
Core_0_LLC_pq_forward 0
Core_0_LLC_pq_merged 5235
Core_0_LLC_pq_to_cache 382987
Core_0_LLC_pq_full 0

Core_0_LLC_acc_epochs 1373482
Core_0_LLC_acc_level_0 1299892
Core_0_LLC_acc_level_1 26126
Core_0_LLC_acc_level_2 24274
Core_0_LLC_acc_level_3 1298
Core_0_LLC_acc_level_4 167
Core_0_LLC_acc_level_5 19559
Core_0_LLC_acc_level_6 337
Core_0_LLC_acc_level_7 415
Core_0_LLC_acc_level_8 89
Core_0_LLC_acc_level_9 1325

Core_0_major_page_fault 0
Core_0_minor_page_fault 6504

spp.pref.total 1343471
spp.pref.at_L2 52474
spp.pref.at_LLC 1290997

spp.depth.max 11
spp.depth.min 0
spp.depth.avg 0

spp.breadth.max 2
spp.breadth.min 0
spp.breadth.avg 0

delta_1 1453391
delta_2 21771
delta_-1 14706
delta_7 13994
delta_4 13385
delta_-2 9578
delta_3 8005
delta_8 7348
delta_-7 343
delta_25 208
delta_13 184
delta_5 153
delta_-13 124
delta_9 122
delta_-24 122
delta_-6 109
delta_-4 107
delta_6 57
delta_-3 49
delta_-34 39
delta_-5 31
delta_-25 24
delta_14 14
delta_35 14
delta_12 11
delta_-14 10
delta_33 9
delta_-26 5
delta_34 4
delta_-38 4
delta_24 3
delta_-11 3
delta_-12 2
delta_-9 1

depth_1_delta_1 824206
depth_1_delta_2 17528
depth_1_delta_7 13489
depth_1_delta_-1 11455
depth_1_delta_4 11450
depth_1_delta_-2 9119
depth_1_delta_3 7898
depth_1_delta_8 7142
depth_1_delta_-7 305
depth_1_delta_25 198
depth_1_delta_5 153
depth_1_delta_13 151
depth_1_delta_9 114
depth_1_delta_-24 113
depth_1_delta_-6 109
depth_1_delta_-13 108
depth_1_delta_-4 103
depth_1_delta_6 57
depth_1_delta_-3 40
depth_1_delta_-34 35
depth_1_delta_-25 24
depth_1_delta_-5 19
depth_1_delta_14 14
depth_1_delta_35 14
depth_1_delta_12 11
depth_1_delta_-14 10
depth_1_delta_33 9
depth_1_delta_-26 5
depth_1_delta_34 4
depth_1_delta_-38 4
depth_1_delta_24 3
depth_1_delta_-11 3
depth_1_delta_-12 2
depth_1_delta_-9 1
depth_2_delta_1 124710
depth_2_delta_2 3758
depth_2_delta_-1 2129
depth_2_delta_4 1933
depth_2_delta_7 476
depth_2_delta_-2 455
depth_2_delta_8 206
depth_2_delta_3 106
depth_2_delta_13 32
depth_2_delta_-13 16
depth_2_delta_-7 15
depth_2_delta_25 10
depth_2_delta_-24 9
depth_2_delta_9 8
depth_2_delta_-5 8
depth_2_delta_-3 7
depth_2_delta_-34 4
depth_2_delta_-4 4
depth_3_delta_1 100436
depth_3_delta_-1 715
depth_3_delta_2 400
depth_3_delta_7 17
depth_3_delta_-7 10
depth_3_delta_-5 4
depth_3_delta_-2 4
depth_3_delta_4 2
depth_3_delta_-3 2
depth_3_delta_3 1
depth_3_delta_13 1
depth_4_delta_1 93601
depth_4_delta_-1 214
depth_4_delta_2 72
depth_4_delta_-7 8
depth_4_delta_7 7
depth_5_delta_1 89799
depth_5_delta_-1 91
depth_5_delta_2 10
depth_5_delta_7 4
depth_5_delta_-7 4
depth_6_delta_1 75502
depth_6_delta_-1 49
depth_6_delta_2 2
depth_6_delta_-7 1
depth_6_delta_7 1
depth_7_delta_1 61888
depth_7_delta_-1 29
depth_7_delta_2 1
depth_8_delta_1 47863
depth_8_delta_-1 17
depth_9_delta_1 27778
depth_9_delta_-1 7
depth_10_delta_1 7595
depth_11_delta_1 13

Channel_0_RQ_row_buffer_hit 292578
Channel_0_RQ_row_buffer_miss 646920
Channel_0_WQ_row_buffer_hit 299048
Channel_0_WQ_row_buffer_miss 565311
Channel_0_WQ_full 1377723
Channel_0_dbus_congested 796687

avg_congested_cycle 4

DRAM_bw_pochs 5493926
DRAM_bw_level_0 5428137
DRAM_bw_level_1 59759
DRAM_bw_level_2 2874
DRAM_bw_level_3 3156
