*************************************************
   ChampSim Multicore Out-of-Order Simulator
   Last compiled: Dec 11 2024 17:59:53
*************************************************
parsing config file: /home/functionmain/桌面/Pythia/config/bingo.ini

trace_0 /home/functionmain/桌面/Pythia/traces/445.gobmk-30B.champsimtrace.xz
adding L2C_PREFETCHER: Bingo
Initialize SHIP state
warmup_instructions 100000000
simulation_instructions 500000000
champsim_seed 165
measure_ipc 0
measure_ipc_epoch 1000
measure_dram_bw 1
measure_dram_bw_epoch 256
measure_cache_acc 1
measure_cache_acc_epoch 1024
l1d_perfect 0
l2c_perfect 0
llc_perfect 0
l1d_semi_perfect 0
l2c_semi_perfect 0
llc_semi_perfect 0
semi_perfect_cache_page_buffer_size 64

num_cpus 1
cpu_freq 4000
dram_io_freq 2400
page_size 4096
block_size 64
max_read_per_cycle 8
max_fill_per_cycle 1
dram_channels 1
log2_dram_channels 0
dram_ranks 1
dram_banks 8
dram_rows 65536
dram_columns 128
dram_row_size 8
dram_size 4096
dram_pages 1048576

fetch_width 6
decode_width 6
exec_width 4
lq_width 2
sq_width 2
retire_width 4
scheduler_size 128
branch_mispredict_penalty 20
rob_size 256
lq_size 72
sq_size 56
num_instr_destinations_sparc 4
num_instr_destinations 2
num_instr_sources 4

itlb_set 16
itlb_way 8
itlb_rq_size 16
itlb_wq_size 16
itlb_pq_size 0
itlb_mshr_size 8
itlb_latency 1

dtlb_set 16
dtlb_way 4
dtlb_rq_size 16
dtlb_wq_size 16
dtlb_pq_size 0
dtlb_mshr_size 8
dtlb_latency 1

stlb_set 128
stlb_way 12
stlb_rq_size 32
stlb_wq_size 32
stlb_pq_size 0
stlb_mshr_size 16
stlb_latency 8

l1i_size 32
l1i_set 64
l1i_way 8
l1i_rq_size 64
l1i_wq_size 64
l1i_pq_size 8
l1i_mshr_size 8
l1i_latency 1

l1d_size 32
l1d_set 64
l1d_way 8
l1d_rq_size 64
l1d_wq_size 64
l1d_pq_size 8
l1d_mshr_size 16
l1d_latency 4

l2c_size 256
l2c_set 512
l2c_way 8
l2c_rq_size 32
l2c_wq_size 32
l2c_pq_size 32
l2c_mshr_size 32
l2c_latency 10

llc_size 2048
llc_set 2048
llc_way 16
llc_rq_size 32
llc_wq_size 32
llc_pq_size 32
llc_mshr_size 64
llc_latency 20

dram_channel_width 8
dram_wq_size 64
dram_rq_size 64
tRP 15
tRCD 15
tCAS 12.5
dram_dbus_turn_around_time 30
dram_write_high_wm 56
dram_write_low_wm 48
min_dram_writes_per_switch 16
dram_mtps 2400
dram_dbus_return_time 13

bingo_region_size 2048
bingo_pattern_len 32
bingo_pc_width 16
bingo_min_addr_width 5
bingo_max_addr_width 16
bingo_ft_size 64
bingo_at_size 128
bingo_pht_size 4096
bingo_pht_ways 16
bingo_pf_streamer_size 128
bingo_debug_level 0
bingo_l1d_thresh 1.01
bingo_l2c_thresh 0.8
bingo_llc_thresh 0.05
bingo_pc_address_fill_level L2


Heartbeat CPU  0 instructions:    1000000 cycles:     861996 heartbeat IPC: 1.16010 cumulative IPC: 1.16010 (Simulation time: 0 hr 0 min 1 sec) 
Heartbeat CPU  0 instructions:    2000000 cycles:    1865282 heartbeat IPC: 0.99672 cumulative IPC: 1.07222 (Simulation time: 0 hr 0 min 3 sec) 
Heartbeat CPU  0 instructions:    3000001 cycles:    2991131 heartbeat IPC: 0.88822 cumulative IPC: 1.00297 (Simulation time: 0 hr 0 min 4 sec) 
Heartbeat CPU  0 instructions:    4000000 cycles:    4091971 heartbeat IPC: 0.90840 cumulative IPC: 0.97752 (Simulation time: 0 hr 0 min 5 sec) 
Heartbeat CPU  0 instructions:    5000001 cycles:    5174191 heartbeat IPC: 0.92403 cumulative IPC: 0.96633 (Simulation time: 0 hr 0 min 7 sec) 
Heartbeat CPU  0 instructions:    6000000 cycles:    6296948 heartbeat IPC: 0.89066 cumulative IPC: 0.95284 (Simulation time: 0 hr 0 min 8 sec) 
Heartbeat CPU  0 instructions:    7000001 cycles:    7364161 heartbeat IPC: 0.93702 cumulative IPC: 0.95055 (Simulation time: 0 hr 0 min 10 sec) 
Heartbeat CPU  0 instructions:    8000000 cycles:    8566901 heartbeat IPC: 0.83143 cumulative IPC: 0.93383 (Simulation time: 0 hr 0 min 11 sec) 
Heartbeat CPU  0 instructions:    9000000 cycles:    9686295 heartbeat IPC: 0.89334 cumulative IPC: 0.92915 (Simulation time: 0 hr 0 min 12 sec) 
Heartbeat CPU  0 instructions:   10000003 cycles:   10816029 heartbeat IPC: 0.88517 cumulative IPC: 0.92455 (Simulation time: 0 hr 0 min 14 sec) 
Heartbeat CPU  0 instructions:   11000000 cycles:   11873768 heartbeat IPC: 0.94541 cumulative IPC: 0.92641 (Simulation time: 0 hr 0 min 15 sec) 
Heartbeat CPU  0 instructions:   12000000 cycles:   13017867 heartbeat IPC: 0.87405 cumulative IPC: 0.92181 (Simulation time: 0 hr 0 min 17 sec) 
Heartbeat CPU  0 instructions:   13000001 cycles:   14157291 heartbeat IPC: 0.87764 cumulative IPC: 0.91825 (Simulation time: 0 hr 0 min 18 sec) 
Heartbeat CPU  0 instructions:   14000000 cycles:   15083986 heartbeat IPC: 1.07910 cumulative IPC: 0.92814 (Simulation time: 0 hr 0 min 19 sec) 
Heartbeat CPU  0 instructions:   15000001 cycles:   16047848 heartbeat IPC: 1.03749 cumulative IPC: 0.93470 (Simulation time: 0 hr 0 min 21 sec) 
Heartbeat CPU  0 instructions:   16000000 cycles:   17176785 heartbeat IPC: 0.88579 cumulative IPC: 0.93149 (Simulation time: 0 hr 0 min 22 sec) 
Heartbeat CPU  0 instructions:   17000000 cycles:   18272241 heartbeat IPC: 0.91286 cumulative IPC: 0.93037 (Simulation time: 0 hr 0 min 23 sec) 
Heartbeat CPU  0 instructions:   18000003 cycles:   19388636 heartbeat IPC: 0.89574 cumulative IPC: 0.92838 (Simulation time: 0 hr 0 min 25 sec) 
Heartbeat CPU  0 instructions:   19000001 cycles:   20469770 heartbeat IPC: 0.92495 cumulative IPC: 0.92820 (Simulation time: 0 hr 0 min 26 sec) 
Heartbeat CPU  0 instructions:   20000000 cycles:   21561528 heartbeat IPC: 0.91595 cumulative IPC: 0.92758 (Simulation time: 0 hr 0 min 28 sec) 
Heartbeat CPU  0 instructions:   21000000 cycles:   22753945 heartbeat IPC: 0.83863 cumulative IPC: 0.92292 (Simulation time: 0 hr 0 min 29 sec) 
Heartbeat CPU  0 instructions:   22000003 cycles:   23881250 heartbeat IPC: 0.88707 cumulative IPC: 0.92122 (Simulation time: 0 hr 0 min 30 sec) 
Heartbeat CPU  0 instructions:   23000001 cycles:   24931321 heartbeat IPC: 0.95231 cumulative IPC: 0.92253 (Simulation time: 0 hr 0 min 32 sec) 
Heartbeat CPU  0 instructions:   24000000 cycles:   26048077 heartbeat IPC: 0.89545 cumulative IPC: 0.92137 (Simulation time: 0 hr 0 min 33 sec) 
Heartbeat CPU  0 instructions:   25000000 cycles:   26927319 heartbeat IPC: 1.13734 cumulative IPC: 0.92843 (Simulation time: 0 hr 0 min 34 sec) 
Heartbeat CPU  0 instructions:   26000000 cycles:   27897198 heartbeat IPC: 1.03106 cumulative IPC: 0.93199 (Simulation time: 0 hr 0 min 36 sec) 
Heartbeat CPU  0 instructions:   27000002 cycles:   28999784 heartbeat IPC: 0.90696 cumulative IPC: 0.93104 (Simulation time: 0 hr 0 min 37 sec) 
Heartbeat CPU  0 instructions:   28000000 cycles:   30120406 heartbeat IPC: 0.89236 cumulative IPC: 0.92960 (Simulation time: 0 hr 0 min 38 sec) 
Heartbeat CPU  0 instructions:   29000003 cycles:   31186383 heartbeat IPC: 0.93811 cumulative IPC: 0.92989 (Simulation time: 0 hr 0 min 40 sec) 
Heartbeat CPU  0 instructions:   30000002 cycles:   32278854 heartbeat IPC: 0.91536 cumulative IPC: 0.92940 (Simulation time: 0 hr 0 min 41 sec) 
Heartbeat CPU  0 instructions:   31000003 cycles:   33381194 heartbeat IPC: 0.90716 cumulative IPC: 0.92867 (Simulation time: 0 hr 0 min 43 sec) 
Heartbeat CPU  0 instructions:   32000000 cycles:   34480846 heartbeat IPC: 0.90938 cumulative IPC: 0.92805 (Simulation time: 0 hr 0 min 44 sec) 
Heartbeat CPU  0 instructions:   33000001 cycles:   35468056 heartbeat IPC: 1.01296 cumulative IPC: 0.93041 (Simulation time: 0 hr 0 min 46 sec) 
Heartbeat CPU  0 instructions:   34000001 cycles:   36605876 heartbeat IPC: 0.87887 cumulative IPC: 0.92881 (Simulation time: 0 hr 0 min 47 sec) 
Heartbeat CPU  0 instructions:   35000003 cycles:   37678083 heartbeat IPC: 0.93266 cumulative IPC: 0.92892 (Simulation time: 0 hr 0 min 48 sec) 
Heartbeat CPU  0 instructions:   36000000 cycles:   38869642 heartbeat IPC: 0.83923 cumulative IPC: 0.92617 (Simulation time: 0 hr 0 min 50 sec) 
Heartbeat CPU  0 instructions:   37000002 cycles:   39985602 heartbeat IPC: 0.89609 cumulative IPC: 0.92533 (Simulation time: 0 hr 0 min 51 sec) 
Heartbeat CPU  0 instructions:   38000000 cycles:   41035516 heartbeat IPC: 0.95246 cumulative IPC: 0.92603 (Simulation time: 0 hr 0 min 52 sec) 
Heartbeat CPU  0 instructions:   39000001 cycles:   41929036 heartbeat IPC: 1.11917 cumulative IPC: 0.93014 (Simulation time: 0 hr 0 min 54 sec) 
Heartbeat CPU  0 instructions:   40000000 cycles:   42886664 heartbeat IPC: 1.04425 cumulative IPC: 0.93269 (Simulation time: 0 hr 0 min 55 sec) 
Heartbeat CPU  0 instructions:   41000000 cycles:   43987929 heartbeat IPC: 0.90805 cumulative IPC: 0.93207 (Simulation time: 0 hr 0 min 56 sec) 
Heartbeat CPU  0 instructions:   42000000 cycles:   45112893 heartbeat IPC: 0.88892 cumulative IPC: 0.93100 (Simulation time: 0 hr 0 min 58 sec) 
Heartbeat CPU  0 instructions:   43000003 cycles:   46180465 heartbeat IPC: 0.93671 cumulative IPC: 0.93113 (Simulation time: 0 hr 0 min 59 sec) 
Heartbeat CPU  0 instructions:   44000000 cycles:   47300354 heartbeat IPC: 0.89294 cumulative IPC: 0.93023 (Simulation time: 0 hr 1 min 0 sec) 
Heartbeat CPU  0 instructions:   45000001 cycles:   48334061 heartbeat IPC: 0.96739 cumulative IPC: 0.93102 (Simulation time: 0 hr 1 min 2 sec) 
Heartbeat CPU  0 instructions:   46000000 cycles:   49420408 heartbeat IPC: 0.92052 cumulative IPC: 0.93079 (Simulation time: 0 hr 1 min 3 sec) 
Heartbeat CPU  0 instructions:   47000003 cycles:   50528643 heartbeat IPC: 0.90234 cumulative IPC: 0.93017 (Simulation time: 0 hr 1 min 5 sec) 
Heartbeat CPU  0 instructions:   48000000 cycles:   51497798 heartbeat IPC: 1.03182 cumulative IPC: 0.93208 (Simulation time: 0 hr 1 min 6 sec) 
Heartbeat CPU  0 instructions:   49000000 cycles:   52612276 heartbeat IPC: 0.89728 cumulative IPC: 0.93134 (Simulation time: 0 hr 1 min 7 sec) 
Heartbeat CPU  0 instructions:   50000000 cycles:   53696262 heartbeat IPC: 0.92252 cumulative IPC: 0.93116 (Simulation time: 0 hr 1 min 9 sec) 
Heartbeat CPU  0 instructions:   51000001 cycles:   54763593 heartbeat IPC: 0.93692 cumulative IPC: 0.93128 (Simulation time: 0 hr 1 min 10 sec) 
Heartbeat CPU  0 instructions:   52000000 cycles:   55893233 heartbeat IPC: 0.88524 cumulative IPC: 0.93035 (Simulation time: 0 hr 1 min 12 sec) 
Heartbeat CPU  0 instructions:   53000000 cycles:   56999703 heartbeat IPC: 0.90378 cumulative IPC: 0.92983 (Simulation time: 0 hr 1 min 13 sec) 
Heartbeat CPU  0 instructions:   54000001 cycles:   58196308 heartbeat IPC: 0.83570 cumulative IPC: 0.92789 (Simulation time: 0 hr 1 min 14 sec) 
Heartbeat CPU  0 instructions:   55000002 cycles:   59315929 heartbeat IPC: 0.89316 cumulative IPC: 0.92724 (Simulation time: 0 hr 1 min 16 sec) 
Heartbeat CPU  0 instructions:   56000000 cycles:   60381724 heartbeat IPC: 0.93826 cumulative IPC: 0.92743 (Simulation time: 0 hr 1 min 17 sec) 
Heartbeat CPU  0 instructions:   57000000 cycles:   61469733 heartbeat IPC: 0.91911 cumulative IPC: 0.92729 (Simulation time: 0 hr 1 min 19 sec) 
Heartbeat CPU  0 instructions:   58000001 cycles:   62558977 heartbeat IPC: 0.91807 cumulative IPC: 0.92713 (Simulation time: 0 hr 1 min 20 sec) 
Heartbeat CPU  0 instructions:   59000000 cycles:   63433698 heartbeat IPC: 1.14322 cumulative IPC: 0.93011 (Simulation time: 0 hr 1 min 21 sec) 
Heartbeat CPU  0 instructions:   60000000 cycles:   64552457 heartbeat IPC: 0.89385 cumulative IPC: 0.92948 (Simulation time: 0 hr 1 min 23 sec) 
Heartbeat CPU  0 instructions:   61000000 cycles:   65648632 heartbeat IPC: 0.91226 cumulative IPC: 0.92919 (Simulation time: 0 hr 1 min 24 sec) 
Heartbeat CPU  0 instructions:   62000000 cycles:   66726848 heartbeat IPC: 0.92746 cumulative IPC: 0.92916 (Simulation time: 0 hr 1 min 25 sec) 
Heartbeat CPU  0 instructions:   63000001 cycles:   67744135 heartbeat IPC: 0.98301 cumulative IPC: 0.92997 (Simulation time: 0 hr 1 min 27 sec) 
Heartbeat CPU  0 instructions:   64000000 cycles:   68866594 heartbeat IPC: 0.89090 cumulative IPC: 0.92933 (Simulation time: 0 hr 1 min 28 sec) 
Heartbeat CPU  0 instructions:   65000000 cycles:   69942018 heartbeat IPC: 0.92987 cumulative IPC: 0.92934 (Simulation time: 0 hr 1 min 30 sec) 
Heartbeat CPU  0 instructions:   66000000 cycles:   70998874 heartbeat IPC: 0.94620 cumulative IPC: 0.92959 (Simulation time: 0 hr 1 min 31 sec) 
Heartbeat CPU  0 instructions:   67000000 cycles:   72112409 heartbeat IPC: 0.89804 cumulative IPC: 0.92910 (Simulation time: 0 hr 1 min 32 sec) 
Heartbeat CPU  0 instructions:   68000000 cycles:   73200753 heartbeat IPC: 0.91883 cumulative IPC: 0.92895 (Simulation time: 0 hr 1 min 34 sec) 
Heartbeat CPU  0 instructions:   69000001 cycles:   74309369 heartbeat IPC: 0.90203 cumulative IPC: 0.92855 (Simulation time: 0 hr 1 min 35 sec) 
Heartbeat CPU  0 instructions:   70000000 cycles:   75282262 heartbeat IPC: 1.02786 cumulative IPC: 0.92983 (Simulation time: 0 hr 1 min 37 sec) 
Heartbeat CPU  0 instructions:   71000000 cycles:   76197242 heartbeat IPC: 1.09292 cumulative IPC: 0.93179 (Simulation time: 0 hr 1 min 38 sec) 
Heartbeat CPU  0 instructions:   72000000 cycles:   77296667 heartbeat IPC: 0.90957 cumulative IPC: 0.93148 (Simulation time: 0 hr 1 min 40 sec) 
Heartbeat CPU  0 instructions:   73000001 cycles:   78358716 heartbeat IPC: 0.94158 cumulative IPC: 0.93161 (Simulation time: 0 hr 1 min 41 sec) 
Heartbeat CPU  0 instructions:   74000000 cycles:   79425569 heartbeat IPC: 0.93734 cumulative IPC: 0.93169 (Simulation time: 0 hr 1 min 42 sec) 
Heartbeat CPU  0 instructions:   75000001 cycles:   80368100 heartbeat IPC: 1.06097 cumulative IPC: 0.93321 (Simulation time: 0 hr 1 min 44 sec) 
Heartbeat CPU  0 instructions:   76000000 cycles:   81356122 heartbeat IPC: 1.01212 cumulative IPC: 0.93416 (Simulation time: 0 hr 1 min 45 sec) 
Heartbeat CPU  0 instructions:   77000002 cycles:   82397778 heartbeat IPC: 0.96001 cumulative IPC: 0.93449 (Simulation time: 0 hr 1 min 47 sec) 
Heartbeat CPU  0 instructions:   78000000 cycles:   83348974 heartbeat IPC: 1.05131 cumulative IPC: 0.93582 (Simulation time: 0 hr 1 min 48 sec) 
Heartbeat CPU  0 instructions:   79000003 cycles:   84379587 heartbeat IPC: 0.97030 cumulative IPC: 0.93625 (Simulation time: 0 hr 1 min 50 sec) 
Heartbeat CPU  0 instructions:   80000000 cycles:   85445914 heartbeat IPC: 0.93780 cumulative IPC: 0.93626 (Simulation time: 0 hr 1 min 51 sec) 
Heartbeat CPU  0 instructions:   81000003 cycles:   86534308 heartbeat IPC: 0.91879 cumulative IPC: 0.93604 (Simulation time: 0 hr 1 min 53 sec) 
Heartbeat CPU  0 instructions:   82000000 cycles:   87609199 heartbeat IPC: 0.93032 cumulative IPC: 0.93597 (Simulation time: 0 hr 1 min 54 sec) 
Heartbeat CPU  0 instructions:   83000001 cycles:   88708400 heartbeat IPC: 0.90975 cumulative IPC: 0.93565 (Simulation time: 0 hr 1 min 55 sec) 
Heartbeat CPU  0 instructions:   84000000 cycles:   89747352 heartbeat IPC: 0.96251 cumulative IPC: 0.93596 (Simulation time: 0 hr 1 min 57 sec) 
Heartbeat CPU  0 instructions:   85000000 cycles:   90746930 heartbeat IPC: 1.00042 cumulative IPC: 0.93667 (Simulation time: 0 hr 1 min 58 sec) 
Heartbeat CPU  0 instructions:   86000000 cycles:   91832949 heartbeat IPC: 0.92079 cumulative IPC: 0.93648 (Simulation time: 0 hr 2 min 0 sec) 
Heartbeat CPU  0 instructions:   87000002 cycles:   92919708 heartbeat IPC: 0.92017 cumulative IPC: 0.93629 (Simulation time: 0 hr 2 min 1 sec) 
Heartbeat CPU  0 instructions:   88000000 cycles:   93989826 heartbeat IPC: 0.93447 cumulative IPC: 0.93627 (Simulation time: 0 hr 2 min 2 sec) 
Heartbeat CPU  0 instructions:   89000002 cycles:   95089035 heartbeat IPC: 0.90975 cumulative IPC: 0.93596 (Simulation time: 0 hr 2 min 4 sec) 
Heartbeat CPU  0 instructions:   90000002 cycles:   96176386 heartbeat IPC: 0.91967 cumulative IPC: 0.93578 (Simulation time: 0 hr 2 min 5 sec) 
Heartbeat CPU  0 instructions:   91000001 cycles:   97242854 heartbeat IPC: 0.93767 cumulative IPC: 0.93580 (Simulation time: 0 hr 2 min 7 sec) 
Heartbeat CPU  0 instructions:   92000000 cycles:   98361584 heartbeat IPC: 0.89387 cumulative IPC: 0.93532 (Simulation time: 0 hr 2 min 8 sec) 
Heartbeat CPU  0 instructions:   93000000 cycles:   99400876 heartbeat IPC: 0.96219 cumulative IPC: 0.93561 (Simulation time: 0 hr 2 min 9 sec) 
Heartbeat CPU  0 instructions:   94000001 cycles:  100519052 heartbeat IPC: 0.89431 cumulative IPC: 0.93515 (Simulation time: 0 hr 2 min 11 sec) 
Heartbeat CPU  0 instructions:   95000001 cycles:  101611020 heartbeat IPC: 0.91578 cumulative IPC: 0.93494 (Simulation time: 0 hr 2 min 12 sec) 
Heartbeat CPU  0 instructions:   96000000 cycles:  102700700 heartbeat IPC: 0.91770 cumulative IPC: 0.93476 (Simulation time: 0 hr 2 min 14 sec) 
Heartbeat CPU  0 instructions:   97000001 cycles:  103828895 heartbeat IPC: 0.88637 cumulative IPC: 0.93423 (Simulation time: 0 hr 2 min 15 sec) 
Heartbeat CPU  0 instructions:   98000000 cycles:  104927582 heartbeat IPC: 0.91018 cumulative IPC: 0.93398 (Simulation time: 0 hr 2 min 16 sec) 
Heartbeat CPU  0 instructions:   99000003 cycles:  105999090 heartbeat IPC: 0.93327 cumulative IPC: 0.93397 (Simulation time: 0 hr 2 min 18 sec) 
Heartbeat CPU  0 instructions:  100000000 cycles:  107084525 heartbeat IPC: 0.92129 cumulative IPC: 0.93384 (Simulation time: 0 hr 2 min 19 sec) 

Warmup complete CPU  0 instructions:  100000001 cycles:  107084527 (Simulation time: 0 hr 2 min 19 sec) 

Heartbeat CPU  0 instructions:  101000000 cycles:  109755046 heartbeat IPC: 0.37446 cumulative IPC: 0.37446 (Simulation time: 0 hr 2 min 21 sec) 
Heartbeat CPU  0 instructions:  102000000 cycles:  112405193 heartbeat IPC: 0.37734 cumulative IPC: 0.37589 (Simulation time: 0 hr 2 min 24 sec) 
Heartbeat CPU  0 instructions:  103000000 cycles:  115058053 heartbeat IPC: 0.37695 cumulative IPC: 0.37624 (Simulation time: 0 hr 2 min 26 sec) 
Heartbeat CPU  0 instructions:  104000000 cycles:  117621920 heartbeat IPC: 0.39004 cumulative IPC: 0.37960 (Simulation time: 0 hr 2 min 28 sec) 
Heartbeat CPU  0 instructions:  105000003 cycles:  120352935 heartbeat IPC: 0.36617 cumulative IPC: 0.37684 (Simulation time: 0 hr 2 min 30 sec) 
Heartbeat CPU  0 instructions:  106000001 cycles:  123043143 heartbeat IPC: 0.37172 cumulative IPC: 0.37597 (Simulation time: 0 hr 2 min 33 sec) 
Heartbeat CPU  0 instructions:  107000003 cycles:  125737169 heartbeat IPC: 0.37119 cumulative IPC: 0.37528 (Simulation time: 0 hr 2 min 35 sec) 
Heartbeat CPU  0 instructions:  108000000 cycles:  128553791 heartbeat IPC: 0.35503 cumulative IPC: 0.37263 (Simulation time: 0 hr 2 min 37 sec) 
Heartbeat CPU  0 instructions:  109000000 cycles:  131345351 heartbeat IPC: 0.35822 cumulative IPC: 0.37097 (Simulation time: 0 hr 2 min 39 sec) 
Heartbeat CPU  0 instructions:  110000002 cycles:  134019430 heartbeat IPC: 0.37396 cumulative IPC: 0.37127 (Simulation time: 0 hr 2 min 42 sec) 
Heartbeat CPU  0 instructions:  111000002 cycles:  136595399 heartbeat IPC: 0.38820 cumulative IPC: 0.37274 (Simulation time: 0 hr 2 min 44 sec) 
Heartbeat CPU  0 instructions:  112000000 cycles:  139344754 heartbeat IPC: 0.36372 cumulative IPC: 0.37198 (Simulation time: 0 hr 2 min 46 sec) 
Heartbeat CPU  0 instructions:  113000001 cycles:  142195767 heartbeat IPC: 0.35075 cumulative IPC: 0.37025 (Simulation time: 0 hr 2 min 48 sec) 
Heartbeat CPU  0 instructions:  114000000 cycles:  145015986 heartbeat IPC: 0.35458 cumulative IPC: 0.36909 (Simulation time: 0 hr 2 min 51 sec) 
Heartbeat CPU  0 instructions:  115000000 cycles:  147719919 heartbeat IPC: 0.36983 cumulative IPC: 0.36914 (Simulation time: 0 hr 2 min 53 sec) 
Heartbeat CPU  0 instructions:  116000000 cycles:  150480305 heartbeat IPC: 0.36227 cumulative IPC: 0.36870 (Simulation time: 0 hr 2 min 55 sec) 
Heartbeat CPU  0 instructions:  117000002 cycles:  153203140 heartbeat IPC: 0.36727 cumulative IPC: 0.36861 (Simulation time: 0 hr 2 min 58 sec) 
Heartbeat CPU  0 instructions:  118000000 cycles:  155944980 heartbeat IPC: 0.36472 cumulative IPC: 0.36840 (Simulation time: 0 hr 3 min 0 sec) 
Heartbeat CPU  0 instructions:  119000000 cycles:  158697999 heartbeat IPC: 0.36324 cumulative IPC: 0.36812 (Simulation time: 0 hr 3 min 2 sec) 
Heartbeat CPU  0 instructions:  120000000 cycles:  161525670 heartbeat IPC: 0.35365 cumulative IPC: 0.36737 (Simulation time: 0 hr 3 min 4 sec) 
Heartbeat CPU  0 instructions:  121000000 cycles:  164233002 heartbeat IPC: 0.36937 cumulative IPC: 0.36746 (Simulation time: 0 hr 3 min 7 sec) 
Heartbeat CPU  0 instructions:  122000001 cycles:  166977050 heartbeat IPC: 0.36443 cumulative IPC: 0.36732 (Simulation time: 0 hr 3 min 9 sec) 
Heartbeat CPU  0 instructions:  123000001 cycles:  169662500 heartbeat IPC: 0.37238 cumulative IPC: 0.36754 (Simulation time: 0 hr 3 min 11 sec) 
Heartbeat CPU  0 instructions:  124000000 cycles:  172298342 heartbeat IPC: 0.37939 cumulative IPC: 0.36802 (Simulation time: 0 hr 3 min 13 sec) 
Heartbeat CPU  0 instructions:  125000003 cycles:  174926213 heartbeat IPC: 0.38054 cumulative IPC: 0.36851 (Simulation time: 0 hr 3 min 16 sec) 
Heartbeat CPU  0 instructions:  126000000 cycles:  177577199 heartbeat IPC: 0.37722 cumulative IPC: 0.36883 (Simulation time: 0 hr 3 min 18 sec) 
Heartbeat CPU  0 instructions:  127000001 cycles:  180434959 heartbeat IPC: 0.34992 cumulative IPC: 0.36810 (Simulation time: 0 hr 3 min 20 sec) 
Heartbeat CPU  0 instructions:  128000000 cycles:  183138897 heartbeat IPC: 0.36983 cumulative IPC: 0.36816 (Simulation time: 0 hr 3 min 22 sec) 
Heartbeat CPU  0 instructions:  129000001 cycles:  185977782 heartbeat IPC: 0.35225 cumulative IPC: 0.36759 (Simulation time: 0 hr 3 min 25 sec) 
Heartbeat CPU  0 instructions:  130000000 cycles:  188822968 heartbeat IPC: 0.35147 cumulative IPC: 0.36702 (Simulation time: 0 hr 3 min 27 sec) 
Heartbeat CPU  0 instructions:  131000000 cycles:  191557230 heartbeat IPC: 0.36573 cumulative IPC: 0.36698 (Simulation time: 0 hr 3 min 29 sec) 
Heartbeat CPU  0 instructions:  132000000 cycles:  194303250 heartbeat IPC: 0.36416 cumulative IPC: 0.36689 (Simulation time: 0 hr 3 min 31 sec) 
Heartbeat CPU  0 instructions:  133000001 cycles:  197004917 heartbeat IPC: 0.37014 cumulative IPC: 0.36699 (Simulation time: 0 hr 3 min 34 sec) 
Heartbeat CPU  0 instructions:  134000000 cycles:  199751859 heartbeat IPC: 0.36404 cumulative IPC: 0.36690 (Simulation time: 0 hr 3 min 36 sec) 
Heartbeat CPU  0 instructions:  135000000 cycles:  202530214 heartbeat IPC: 0.35993 cumulative IPC: 0.36670 (Simulation time: 0 hr 3 min 38 sec) 
Heartbeat CPU  0 instructions:  136000000 cycles:  205300159 heartbeat IPC: 0.36102 cumulative IPC: 0.36654 (Simulation time: 0 hr 3 min 40 sec) 
Heartbeat CPU  0 instructions:  137000000 cycles:  208019744 heartbeat IPC: 0.36770 cumulative IPC: 0.36657 (Simulation time: 0 hr 3 min 43 sec) 
Heartbeat CPU  0 instructions:  138000000 cycles:  210620186 heartbeat IPC: 0.38455 cumulative IPC: 0.36702 (Simulation time: 0 hr 3 min 45 sec) 
Heartbeat CPU  0 instructions:  139000002 cycles:  213279002 heartbeat IPC: 0.37611 cumulative IPC: 0.36725 (Simulation time: 0 hr 3 min 47 sec) 
Heartbeat CPU  0 instructions:  140000000 cycles:  216018078 heartbeat IPC: 0.36509 cumulative IPC: 0.36720 (Simulation time: 0 hr 3 min 49 sec) 
Heartbeat CPU  0 instructions:  141000003 cycles:  218748164 heartbeat IPC: 0.36629 cumulative IPC: 0.36717 (Simulation time: 0 hr 3 min 52 sec) 
Heartbeat CPU  0 instructions:  142000000 cycles:  221415743 heartbeat IPC: 0.37487 cumulative IPC: 0.36735 (Simulation time: 0 hr 3 min 54 sec) 
Heartbeat CPU  0 instructions:  143000001 cycles:  224060749 heartbeat IPC: 0.37807 cumulative IPC: 0.36760 (Simulation time: 0 hr 3 min 56 sec) 
Heartbeat CPU  0 instructions:  144000000 cycles:  225596238 heartbeat IPC: 0.65126 cumulative IPC: 0.37127 (Simulation time: 0 hr 3 min 58 sec) 
Heartbeat CPU  0 instructions:  145000002 cycles:  226503948 heartbeat IPC: 1.10168 cumulative IPC: 0.37682 (Simulation time: 0 hr 4 min 1 sec) 
Heartbeat CPU  0 instructions:  146000000 cycles:  227225163 heartbeat IPC: 1.38655 cumulative IPC: 0.38288 (Simulation time: 0 hr 4 min 3 sec) 
Heartbeat CPU  0 instructions:  147000000 cycles:  228153395 heartbeat IPC: 1.07732 cumulative IPC: 0.38821 (Simulation time: 0 hr 4 min 5 sec) 
Heartbeat CPU  0 instructions:  148000000 cycles:  229243234 heartbeat IPC: 0.91757 cumulative IPC: 0.39293 (Simulation time: 0 hr 4 min 8 sec) 
Heartbeat CPU  0 instructions:  149000000 cycles:  231258361 heartbeat IPC: 0.49625 cumulative IPC: 0.39461 (Simulation time: 0 hr 4 min 11 sec) 
Heartbeat CPU  0 instructions:  150000001 cycles:  233445514 heartbeat IPC: 0.45722 cumulative IPC: 0.39569 (Simulation time: 0 hr 4 min 15 sec) 
Heartbeat CPU  0 instructions:  151000001 cycles:  235744989 heartbeat IPC: 0.43488 cumulative IPC: 0.39639 (Simulation time: 0 hr 4 min 19 sec) 
Heartbeat CPU  0 instructions:  152000000 cycles:  238534883 heartbeat IPC: 0.35844 cumulative IPC: 0.39559 (Simulation time: 0 hr 4 min 23 sec) 
Heartbeat CPU  0 instructions:  153000000 cycles:  241811548 heartbeat IPC: 0.30519 cumulative IPC: 0.39339 (Simulation time: 0 hr 4 min 27 sec) 
Heartbeat CPU  0 instructions:  154000003 cycles:  245250666 heartbeat IPC: 0.29077 cumulative IPC: 0.39083 (Simulation time: 0 hr 4 min 32 sec) 
Heartbeat CPU  0 instructions:  155000003 cycles:  246934287 heartbeat IPC: 0.59396 cumulative IPC: 0.39328 (Simulation time: 0 hr 4 min 35 sec) 
Heartbeat CPU  0 instructions:  156000000 cycles:  248077228 heartbeat IPC: 0.87493 cumulative IPC: 0.39718 (Simulation time: 0 hr 4 min 38 sec) 
Heartbeat CPU  0 instructions:  157000001 cycles:  249212479 heartbeat IPC: 0.88086 cumulative IPC: 0.40105 (Simulation time: 0 hr 4 min 40 sec) 
Heartbeat CPU  0 instructions:  158000002 cycles:  250413505 heartbeat IPC: 0.83262 cumulative IPC: 0.40466 (Simulation time: 0 hr 4 min 43 sec) 
Heartbeat CPU  0 instructions:  159000002 cycles:  252738826 heartbeat IPC: 0.43005 cumulative IPC: 0.40507 (Simulation time: 0 hr 4 min 47 sec) 
Heartbeat CPU  0 instructions:  160000000 cycles:  255035260 heartbeat IPC: 0.43546 cumulative IPC: 0.40554 (Simulation time: 0 hr 4 min 50 sec) 
Heartbeat CPU  0 instructions:  161000002 cycles:  257343506 heartbeat IPC: 0.43323 cumulative IPC: 0.40597 (Simulation time: 0 hr 4 min 54 sec) 
Heartbeat CPU  0 instructions:  162000000 cycles:  260448166 heartbeat IPC: 0.32210 cumulative IPC: 0.40427 (Simulation time: 0 hr 4 min 58 sec) 
Heartbeat CPU  0 instructions:  163000002 cycles:  263804648 heartbeat IPC: 0.29793 cumulative IPC: 0.40199 (Simulation time: 0 hr 5 min 3 sec) 
Heartbeat CPU  0 instructions:  164000000 cycles:  267001162 heartbeat IPC: 0.31284 cumulative IPC: 0.40021 (Simulation time: 0 hr 5 min 7 sec) 
Heartbeat CPU  0 instructions:  165000003 cycles:  269616830 heartbeat IPC: 0.38231 cumulative IPC: 0.39992 (Simulation time: 0 hr 5 min 9 sec) 
Heartbeat CPU  0 instructions:  166000000 cycles:  272446379 heartbeat IPC: 0.35341 cumulative IPC: 0.39912 (Simulation time: 0 hr 5 min 11 sec) 
Heartbeat CPU  0 instructions:  167000002 cycles:  275224639 heartbeat IPC: 0.35994 cumulative IPC: 0.39848 (Simulation time: 0 hr 5 min 14 sec) 
Heartbeat CPU  0 instructions:  168000000 cycles:  277993441 heartbeat IPC: 0.36117 cumulative IPC: 0.39787 (Simulation time: 0 hr 5 min 16 sec) 
Heartbeat CPU  0 instructions:  169000000 cycles:  280800017 heartbeat IPC: 0.35631 cumulative IPC: 0.39720 (Simulation time: 0 hr 5 min 18 sec) 
Heartbeat CPU  0 instructions:  170000003 cycles:  283581980 heartbeat IPC: 0.35946 cumulative IPC: 0.39661 (Simulation time: 0 hr 5 min 21 sec) 
Heartbeat CPU  0 instructions:  171000000 cycles:  286286157 heartbeat IPC: 0.36980 cumulative IPC: 0.39620 (Simulation time: 0 hr 5 min 23 sec) 
Heartbeat CPU  0 instructions:  172000000 cycles:  289060019 heartbeat IPC: 0.36051 cumulative IPC: 0.39566 (Simulation time: 0 hr 5 min 25 sec) 
Heartbeat CPU  0 instructions:  173000000 cycles:  291747870 heartbeat IPC: 0.37204 cumulative IPC: 0.39531 (Simulation time: 0 hr 5 min 27 sec) 
Heartbeat CPU  0 instructions:  174000000 cycles:  294522309 heartbeat IPC: 0.36043 cumulative IPC: 0.39480 (Simulation time: 0 hr 5 min 30 sec) 
Heartbeat CPU  0 instructions:  175000001 cycles:  297288763 heartbeat IPC: 0.36147 cumulative IPC: 0.39431 (Simulation time: 0 hr 5 min 32 sec) 
Heartbeat CPU  0 instructions:  176000000 cycles:  300067258 heartbeat IPC: 0.35991 cumulative IPC: 0.39382 (Simulation time: 0 hr 5 min 34 sec) 
Heartbeat CPU  0 instructions:  177000000 cycles:  302842611 heartbeat IPC: 0.36031 cumulative IPC: 0.39334 (Simulation time: 0 hr 5 min 36 sec) 
Heartbeat CPU  0 instructions:  178000001 cycles:  305560160 heartbeat IPC: 0.36798 cumulative IPC: 0.39300 (Simulation time: 0 hr 5 min 39 sec) 
Heartbeat CPU  0 instructions:  179000003 cycles:  308167461 heartbeat IPC: 0.38354 cumulative IPC: 0.39287 (Simulation time: 0 hr 5 min 41 sec) 
Heartbeat CPU  0 instructions:  180000000 cycles:  310909787 heartbeat IPC: 0.36465 cumulative IPC: 0.39249 (Simulation time: 0 hr 5 min 43 sec) 
Heartbeat CPU  0 instructions:  181000000 cycles:  313396006 heartbeat IPC: 0.40222 cumulative IPC: 0.39261 (Simulation time: 0 hr 5 min 45 sec) 
Heartbeat CPU  0 instructions:  182000000 cycles:  316076579 heartbeat IPC: 0.37305 cumulative IPC: 0.39236 (Simulation time: 0 hr 5 min 48 sec) 
Heartbeat CPU  0 instructions:  183000000 cycles:  318650763 heartbeat IPC: 0.38847 cumulative IPC: 0.39231 (Simulation time: 0 hr 5 min 50 sec) 
Heartbeat CPU  0 instructions:  184000000 cycles:  321123592 heartbeat IPC: 0.40440 cumulative IPC: 0.39245 (Simulation time: 0 hr 5 min 52 sec) 
Heartbeat CPU  0 instructions:  185000000 cycles:  323734683 heartbeat IPC: 0.38298 cumulative IPC: 0.39234 (Simulation time: 0 hr 5 min 54 sec) 
Heartbeat CPU  0 instructions:  186000000 cycles:  326434247 heartbeat IPC: 0.37043 cumulative IPC: 0.39207 (Simulation time: 0 hr 5 min 56 sec) 
Heartbeat CPU  0 instructions:  187000000 cycles:  329009195 heartbeat IPC: 0.38836 cumulative IPC: 0.39202 (Simulation time: 0 hr 5 min 59 sec) 
Heartbeat CPU  0 instructions:  188000000 cycles:  331396896 heartbeat IPC: 0.41881 cumulative IPC: 0.39231 (Simulation time: 0 hr 6 min 1 sec) 
Heartbeat CPU  0 instructions:  189000000 cycles:  334031897 heartbeat IPC: 0.37951 cumulative IPC: 0.39216 (Simulation time: 0 hr 6 min 3 sec) 
Heartbeat CPU  0 instructions:  190000000 cycles:  336581010 heartbeat IPC: 0.39229 cumulative IPC: 0.39216 (Simulation time: 0 hr 6 min 5 sec) 
Heartbeat CPU  0 instructions:  191000001 cycles:  339195207 heartbeat IPC: 0.38253 cumulative IPC: 0.39205 (Simulation time: 0 hr 6 min 8 sec) 
Heartbeat CPU  0 instructions:  192000000 cycles:  341781428 heartbeat IPC: 0.38666 cumulative IPC: 0.39199 (Simulation time: 0 hr 6 min 10 sec) 
Heartbeat CPU  0 instructions:  193000001 cycles:  344318751 heartbeat IPC: 0.39412 cumulative IPC: 0.39202 (Simulation time: 0 hr 6 min 12 sec) 
Heartbeat CPU  0 instructions:  194000000 cycles:  346370091 heartbeat IPC: 0.48749 cumulative IPC: 0.39284 (Simulation time: 0 hr 6 min 14 sec) 
Heartbeat CPU  0 instructions:  195000000 cycles:  349002994 heartbeat IPC: 0.37981 cumulative IPC: 0.39269 (Simulation time: 0 hr 6 min 16 sec) 
Heartbeat CPU  0 instructions:  196000000 cycles:  351622289 heartbeat IPC: 0.38178 cumulative IPC: 0.39258 (Simulation time: 0 hr 6 min 18 sec) 
Heartbeat CPU  0 instructions:  197000002 cycles:  354180381 heartbeat IPC: 0.39092 cumulative IPC: 0.39256 (Simulation time: 0 hr 6 min 21 sec) 
Heartbeat CPU  0 instructions:  198000000 cycles:  356697408 heartbeat IPC: 0.39729 cumulative IPC: 0.39261 (Simulation time: 0 hr 6 min 23 sec) 
Heartbeat CPU  0 instructions:  199000000 cycles:  359209819 heartbeat IPC: 0.39802 cumulative IPC: 0.39266 (Simulation time: 0 hr 6 min 25 sec) 
Heartbeat CPU  0 instructions:  200000000 cycles:  361778815 heartbeat IPC: 0.38926 cumulative IPC: 0.39263 (Simulation time: 0 hr 6 min 27 sec) 
Heartbeat CPU  0 instructions:  201000002 cycles:  364451357 heartbeat IPC: 0.37418 cumulative IPC: 0.39244 (Simulation time: 0 hr 6 min 30 sec) 
Heartbeat CPU  0 instructions:  202000001 cycles:  367149568 heartbeat IPC: 0.37062 cumulative IPC: 0.39221 (Simulation time: 0 hr 6 min 32 sec) 
Heartbeat CPU  0 instructions:  203000000 cycles:  369731017 heartbeat IPC: 0.38738 cumulative IPC: 0.39216 (Simulation time: 0 hr 6 min 34 sec) 
Heartbeat CPU  0 instructions:  204000000 cycles:  372258774 heartbeat IPC: 0.39561 cumulative IPC: 0.39219 (Simulation time: 0 hr 6 min 36 sec) 
Heartbeat CPU  0 instructions:  205000002 cycles:  374879557 heartbeat IPC: 0.38157 cumulative IPC: 0.39209 (Simulation time: 0 hr 6 min 39 sec) 
Heartbeat CPU  0 instructions:  206000001 cycles:  377407219 heartbeat IPC: 0.39562 cumulative IPC: 0.39212 (Simulation time: 0 hr 6 min 41 sec) 
Heartbeat CPU  0 instructions:  207000000 cycles:  379990518 heartbeat IPC: 0.38710 cumulative IPC: 0.39208 (Simulation time: 0 hr 6 min 43 sec) 
Heartbeat CPU  0 instructions:  208000000 cycles:  382801531 heartbeat IPC: 0.35574 cumulative IPC: 0.39171 (Simulation time: 0 hr 6 min 45 sec) 
Heartbeat CPU  0 instructions:  209000003 cycles:  385623316 heartbeat IPC: 0.35439 cumulative IPC: 0.39133 (Simulation time: 0 hr 6 min 48 sec) 
Heartbeat CPU  0 instructions:  210000000 cycles:  388220424 heartbeat IPC: 0.38504 cumulative IPC: 0.39127 (Simulation time: 0 hr 6 min 50 sec) 
Heartbeat CPU  0 instructions:  211000000 cycles:  391085252 heartbeat IPC: 0.34906 cumulative IPC: 0.39084 (Simulation time: 0 hr 6 min 52 sec) 
Heartbeat CPU  0 instructions:  212000000 cycles:  393781314 heartbeat IPC: 0.37091 cumulative IPC: 0.39066 (Simulation time: 0 hr 6 min 54 sec) 
Heartbeat CPU  0 instructions:  213000002 cycles:  396522059 heartbeat IPC: 0.36487 cumulative IPC: 0.39041 (Simulation time: 0 hr 6 min 57 sec) 
Heartbeat CPU  0 instructions:  214000000 cycles:  399324476 heartbeat IPC: 0.35683 cumulative IPC: 0.39009 (Simulation time: 0 hr 6 min 59 sec) 
Heartbeat CPU  0 instructions:  215000001 cycles:  402110882 heartbeat IPC: 0.35889 cumulative IPC: 0.38980 (Simulation time: 0 hr 7 min 1 sec) 
Heartbeat CPU  0 instructions:  216000000 cycles:  404871691 heartbeat IPC: 0.36221 cumulative IPC: 0.38954 (Simulation time: 0 hr 7 min 3 sec) 
Heartbeat CPU  0 instructions:  217000000 cycles:  407647080 heartbeat IPC: 0.36031 cumulative IPC: 0.38927 (Simulation time: 0 hr 7 min 6 sec) 
Heartbeat CPU  0 instructions:  218000002 cycles:  410430733 heartbeat IPC: 0.35924 cumulative IPC: 0.38899 (Simulation time: 0 hr 7 min 8 sec) 
Heartbeat CPU  0 instructions:  219000000 cycles:  413183755 heartbeat IPC: 0.36324 cumulative IPC: 0.38876 (Simulation time: 0 hr 7 min 10 sec) 
Heartbeat CPU  0 instructions:  220000000 cycles:  415921285 heartbeat IPC: 0.36529 cumulative IPC: 0.38855 (Simulation time: 0 hr 7 min 13 sec) 
Heartbeat CPU  0 instructions:  221000003 cycles:  418721632 heartbeat IPC: 0.35710 cumulative IPC: 0.38827 (Simulation time: 0 hr 7 min 15 sec) 
Heartbeat CPU  0 instructions:  222000003 cycles:  421497071 heartbeat IPC: 0.36030 cumulative IPC: 0.38803 (Simulation time: 0 hr 7 min 17 sec) 
Heartbeat CPU  0 instructions:  223000000 cycles:  424213589 heartbeat IPC: 0.36812 cumulative IPC: 0.38785 (Simulation time: 0 hr 7 min 19 sec) 
Heartbeat CPU  0 instructions:  224000000 cycles:  426917218 heartbeat IPC: 0.36987 cumulative IPC: 0.38770 (Simulation time: 0 hr 7 min 22 sec) 
Heartbeat CPU  0 instructions:  225000000 cycles:  429546612 heartbeat IPC: 0.38032 cumulative IPC: 0.38764 (Simulation time: 0 hr 7 min 24 sec) 
Heartbeat CPU  0 instructions:  226000002 cycles:  432283682 heartbeat IPC: 0.36535 cumulative IPC: 0.38745 (Simulation time: 0 hr 7 min 26 sec) 
Heartbeat CPU  0 instructions:  227000000 cycles:  435024800 heartbeat IPC: 0.36481 cumulative IPC: 0.38727 (Simulation time: 0 hr 7 min 28 sec) 
Heartbeat CPU  0 instructions:  228000000 cycles:  437714490 heartbeat IPC: 0.37179 cumulative IPC: 0.38714 (Simulation time: 0 hr 7 min 31 sec) 
Heartbeat CPU  0 instructions:  229000003 cycles:  440511386 heartbeat IPC: 0.35754 cumulative IPC: 0.38689 (Simulation time: 0 hr 7 min 33 sec) 
Heartbeat CPU  0 instructions:  230000003 cycles:  443299478 heartbeat IPC: 0.35867 cumulative IPC: 0.38666 (Simulation time: 0 hr 7 min 35 sec) 
Heartbeat CPU  0 instructions:  231000000 cycles:  446077701 heartbeat IPC: 0.35994 cumulative IPC: 0.38644 (Simulation time: 0 hr 7 min 37 sec) 
Heartbeat CPU  0 instructions:  232000000 cycles:  448785607 heartbeat IPC: 0.36929 cumulative IPC: 0.38630 (Simulation time: 0 hr 7 min 40 sec) 
Heartbeat CPU  0 instructions:  233000001 cycles:  451514827 heartbeat IPC: 0.36641 cumulative IPC: 0.38614 (Simulation time: 0 hr 7 min 42 sec) 
Heartbeat CPU  0 instructions:  234000000 cycles:  454242997 heartbeat IPC: 0.36655 cumulative IPC: 0.38599 (Simulation time: 0 hr 7 min 44 sec) 
Heartbeat CPU  0 instructions:  235000000 cycles:  456948242 heartbeat IPC: 0.36965 cumulative IPC: 0.38586 (Simulation time: 0 hr 7 min 46 sec) 
Heartbeat CPU  0 instructions:  236000000 cycles:  459422110 heartbeat IPC: 0.40423 cumulative IPC: 0.38599 (Simulation time: 0 hr 7 min 49 sec) 
Heartbeat CPU  0 instructions:  237000001 cycles:  461759732 heartbeat IPC: 0.42779 cumulative IPC: 0.38627 (Simulation time: 0 hr 7 min 51 sec) 
Heartbeat CPU  0 instructions:  238000000 cycles:  464314144 heartbeat IPC: 0.39148 cumulative IPC: 0.38631 (Simulation time: 0 hr 7 min 53 sec) 
Heartbeat CPU  0 instructions:  239000000 cycles:  467069857 heartbeat IPC: 0.36288 cumulative IPC: 0.38613 (Simulation time: 0 hr 7 min 55 sec) 
Heartbeat CPU  0 instructions:  240000000 cycles:  469737647 heartbeat IPC: 0.37484 cumulative IPC: 0.38604 (Simulation time: 0 hr 7 min 57 sec) 
Heartbeat CPU  0 instructions:  241000000 cycles:  472432012 heartbeat IPC: 0.37114 cumulative IPC: 0.38593 (Simulation time: 0 hr 8 min 0 sec) 
Heartbeat CPU  0 instructions:  242000003 cycles:  475255582 heartbeat IPC: 0.35416 cumulative IPC: 0.38569 (Simulation time: 0 hr 8 min 2 sec) 
Heartbeat CPU  0 instructions:  243000001 cycles:  478024589 heartbeat IPC: 0.36114 cumulative IPC: 0.38551 (Simulation time: 0 hr 8 min 4 sec) 
Heartbeat CPU  0 instructions:  244000000 cycles:  480632040 heartbeat IPC: 0.38352 cumulative IPC: 0.38549 (Simulation time: 0 hr 8 min 7 sec) 
Heartbeat CPU  0 instructions:  245000000 cycles:  483176735 heartbeat IPC: 0.39297 cumulative IPC: 0.38554 (Simulation time: 0 hr 8 min 9 sec) 
Heartbeat CPU  0 instructions:  246000001 cycles:  485911047 heartbeat IPC: 0.36572 cumulative IPC: 0.38540 (Simulation time: 0 hr 8 min 11 sec) 
Heartbeat CPU  0 instructions:  247000002 cycles:  488554889 heartbeat IPC: 0.37824 cumulative IPC: 0.38535 (Simulation time: 0 hr 8 min 13 sec) 
Heartbeat CPU  0 instructions:  248000000 cycles:  491141835 heartbeat IPC: 0.38656 cumulative IPC: 0.38536 (Simulation time: 0 hr 8 min 15 sec) 
Heartbeat CPU  0 instructions:  249000003 cycles:  493692028 heartbeat IPC: 0.39213 cumulative IPC: 0.38540 (Simulation time: 0 hr 8 min 18 sec) 
Heartbeat CPU  0 instructions:  250000000 cycles:  496089182 heartbeat IPC: 0.41716 cumulative IPC: 0.38560 (Simulation time: 0 hr 8 min 20 sec) 
Heartbeat CPU  0 instructions:  251000002 cycles:  498802478 heartbeat IPC: 0.36856 cumulative IPC: 0.38548 (Simulation time: 0 hr 8 min 22 sec) 
Heartbeat CPU  0 instructions:  252000000 cycles:  501507724 heartbeat IPC: 0.36965 cumulative IPC: 0.38537 (Simulation time: 0 hr 8 min 24 sec) 
Heartbeat CPU  0 instructions:  253000000 cycles:  504324705 heartbeat IPC: 0.35499 cumulative IPC: 0.38516 (Simulation time: 0 hr 8 min 27 sec) 
Heartbeat CPU  0 instructions:  254000002 cycles:  507045538 heartbeat IPC: 0.36754 cumulative IPC: 0.38504 (Simulation time: 0 hr 8 min 29 sec) 
Heartbeat CPU  0 instructions:  255000001 cycles:  509775363 heartbeat IPC: 0.36632 cumulative IPC: 0.38491 (Simulation time: 0 hr 8 min 31 sec) 
Heartbeat CPU  0 instructions:  256000000 cycles:  512501233 heartbeat IPC: 0.36685 cumulative IPC: 0.38479 (Simulation time: 0 hr 8 min 33 sec) 
Heartbeat CPU  0 instructions:  257000000 cycles:  515217836 heartbeat IPC: 0.36811 cumulative IPC: 0.38468 (Simulation time: 0 hr 8 min 36 sec) 
Heartbeat CPU  0 instructions:  258000000 cycles:  517921931 heartbeat IPC: 0.36981 cumulative IPC: 0.38458 (Simulation time: 0 hr 8 min 38 sec) 
Heartbeat CPU  0 instructions:  259000000 cycles:  520406140 heartbeat IPC: 0.40254 cumulative IPC: 0.38469 (Simulation time: 0 hr 8 min 40 sec) 
Heartbeat CPU  0 instructions:  260000000 cycles:  523072751 heartbeat IPC: 0.37501 cumulative IPC: 0.38463 (Simulation time: 0 hr 8 min 42 sec) 
Heartbeat CPU  0 instructions:  261000000 cycles:  525776969 heartbeat IPC: 0.36979 cumulative IPC: 0.38453 (Simulation time: 0 hr 8 min 45 sec) 
Heartbeat CPU  0 instructions:  262000000 cycles:  528499997 heartbeat IPC: 0.36724 cumulative IPC: 0.38442 (Simulation time: 0 hr 8 min 47 sec) 
Heartbeat CPU  0 instructions:  263000001 cycles:  531189711 heartbeat IPC: 0.37179 cumulative IPC: 0.38434 (Simulation time: 0 hr 8 min 49 sec) 
Heartbeat CPU  0 instructions:  264000000 cycles:  533819185 heartbeat IPC: 0.38030 cumulative IPC: 0.38431 (Simulation time: 0 hr 8 min 51 sec) 
Heartbeat CPU  0 instructions:  265000002 cycles:  536452965 heartbeat IPC: 0.37968 cumulative IPC: 0.38429 (Simulation time: 0 hr 8 min 53 sec) 
Heartbeat CPU  0 instructions:  266000002 cycles:  539100537 heartbeat IPC: 0.37770 cumulative IPC: 0.38425 (Simulation time: 0 hr 8 min 56 sec) 
Heartbeat CPU  0 instructions:  267000003 cycles:  541821948 heartbeat IPC: 0.36746 cumulative IPC: 0.38414 (Simulation time: 0 hr 8 min 58 sec) 
Heartbeat CPU  0 instructions:  268000000 cycles:  544557646 heartbeat IPC: 0.36554 cumulative IPC: 0.38402 (Simulation time: 0 hr 9 min 0 sec) 
Heartbeat CPU  0 instructions:  269000001 cycles:  547285496 heartbeat IPC: 0.36659 cumulative IPC: 0.38392 (Simulation time: 0 hr 9 min 2 sec) 
Heartbeat CPU  0 instructions:  270000001 cycles:  549985607 heartbeat IPC: 0.37036 cumulative IPC: 0.38383 (Simulation time: 0 hr 9 min 5 sec) 
Heartbeat CPU  0 instructions:  271000003 cycles:  552675112 heartbeat IPC: 0.37182 cumulative IPC: 0.38376 (Simulation time: 0 hr 9 min 7 sec) 
Heartbeat CPU  0 instructions:  272000000 cycles:  555397794 heartbeat IPC: 0.36728 cumulative IPC: 0.38366 (Simulation time: 0 hr 9 min 9 sec) 
Heartbeat CPU  0 instructions:  273000001 cycles:  558081861 heartbeat IPC: 0.37257 cumulative IPC: 0.38359 (Simulation time: 0 hr 9 min 11 sec) 
Heartbeat CPU  0 instructions:  274000003 cycles:  560860477 heartbeat IPC: 0.35989 cumulative IPC: 0.38345 (Simulation time: 0 hr 9 min 14 sec) 
Heartbeat CPU  0 instructions:  275000002 cycles:  563582117 heartbeat IPC: 0.36743 cumulative IPC: 0.38335 (Simulation time: 0 hr 9 min 16 sec) 
Heartbeat CPU  0 instructions:  276000000 cycles:  566241364 heartbeat IPC: 0.37605 cumulative IPC: 0.38331 (Simulation time: 0 hr 9 min 18 sec) 
Heartbeat CPU  0 instructions:  277000000 cycles:  568805578 heartbeat IPC: 0.38998 cumulative IPC: 0.38335 (Simulation time: 0 hr 9 min 20 sec) 
Heartbeat CPU  0 instructions:  278000001 cycles:  571295785 heartbeat IPC: 0.40157 cumulative IPC: 0.38345 (Simulation time: 0 hr 9 min 23 sec) 
Heartbeat CPU  0 instructions:  279000002 cycles:  573865399 heartbeat IPC: 0.38916 cumulative IPC: 0.38348 (Simulation time: 0 hr 9 min 25 sec) 
Heartbeat CPU  0 instructions:  280000000 cycles:  576566361 heartbeat IPC: 0.37024 cumulative IPC: 0.38340 (Simulation time: 0 hr 9 min 27 sec) 
Heartbeat CPU  0 instructions:  281000002 cycles:  579286715 heartbeat IPC: 0.36760 cumulative IPC: 0.38331 (Simulation time: 0 hr 9 min 29 sec) 
Heartbeat CPU  0 instructions:  282000003 cycles:  581923119 heartbeat IPC: 0.37930 cumulative IPC: 0.38329 (Simulation time: 0 hr 9 min 32 sec) 
Heartbeat CPU  0 instructions:  283000001 cycles:  584383514 heartbeat IPC: 0.40644 cumulative IPC: 0.38341 (Simulation time: 0 hr 9 min 34 sec) 
Heartbeat CPU  0 instructions:  284000000 cycles:  586990832 heartbeat IPC: 0.38354 cumulative IPC: 0.38341 (Simulation time: 0 hr 9 min 36 sec) 
Heartbeat CPU  0 instructions:  285000001 cycles:  589660867 heartbeat IPC: 0.37453 cumulative IPC: 0.38336 (Simulation time: 0 hr 9 min 38 sec) 
Heartbeat CPU  0 instructions:  286000000 cycles:  592144616 heartbeat IPC: 0.40262 cumulative IPC: 0.38346 (Simulation time: 0 hr 9 min 41 sec) 
Heartbeat CPU  0 instructions:  287000002 cycles:  594707550 heartbeat IPC: 0.39018 cumulative IPC: 0.38349 (Simulation time: 0 hr 9 min 43 sec) 
Heartbeat CPU  0 instructions:  288000000 cycles:  597416436 heartbeat IPC: 0.36915 cumulative IPC: 0.38341 (Simulation time: 0 hr 9 min 45 sec) 
Heartbeat CPU  0 instructions:  289000000 cycles:  600166919 heartbeat IPC: 0.36357 cumulative IPC: 0.38330 (Simulation time: 0 hr 9 min 47 sec) 
Heartbeat CPU  0 instructions:  290000002 cycles:  602756239 heartbeat IPC: 0.38620 cumulative IPC: 0.38332 (Simulation time: 0 hr 9 min 49 sec) 
Heartbeat CPU  0 instructions:  291000000 cycles:  605638687 heartbeat IPC: 0.34693 cumulative IPC: 0.38311 (Simulation time: 0 hr 9 min 52 sec) 
Heartbeat CPU  0 instructions:  292000000 cycles:  608447227 heartbeat IPC: 0.35606 cumulative IPC: 0.38296 (Simulation time: 0 hr 9 min 54 sec) 
Heartbeat CPU  0 instructions:  293000000 cycles:  611226361 heartbeat IPC: 0.35982 cumulative IPC: 0.38283 (Simulation time: 0 hr 9 min 56 sec) 
Heartbeat CPU  0 instructions:  294000002 cycles:  613971431 heartbeat IPC: 0.36429 cumulative IPC: 0.38273 (Simulation time: 0 hr 9 min 59 sec) 
Heartbeat CPU  0 instructions:  295000001 cycles:  616666817 heartbeat IPC: 0.37100 cumulative IPC: 0.38267 (Simulation time: 0 hr 10 min 1 sec) 
Heartbeat CPU  0 instructions:  296000000 cycles:  619423859 heartbeat IPC: 0.36271 cumulative IPC: 0.38256 (Simulation time: 0 hr 10 min 3 sec) 
Heartbeat CPU  0 instructions:  297000000 cycles:  622148157 heartbeat IPC: 0.36707 cumulative IPC: 0.38248 (Simulation time: 0 hr 10 min 5 sec) 
Heartbeat CPU  0 instructions:  298000000 cycles:  624828739 heartbeat IPC: 0.37305 cumulative IPC: 0.38243 (Simulation time: 0 hr 10 min 7 sec) 
Heartbeat CPU  0 instructions:  299000000 cycles:  627619018 heartbeat IPC: 0.35839 cumulative IPC: 0.38230 (Simulation time: 0 hr 10 min 10 sec) 
Heartbeat CPU  0 instructions:  300000000 cycles:  630310268 heartbeat IPC: 0.37157 cumulative IPC: 0.38224 (Simulation time: 0 hr 10 min 12 sec) 
Heartbeat CPU  0 instructions:  301000000 cycles:  633077765 heartbeat IPC: 0.36134 cumulative IPC: 0.38213 (Simulation time: 0 hr 10 min 14 sec) 
Heartbeat CPU  0 instructions:  302000000 cycles:  635817626 heartbeat IPC: 0.36498 cumulative IPC: 0.38205 (Simulation time: 0 hr 10 min 17 sec) 
Heartbeat CPU  0 instructions:  303000000 cycles:  638687808 heartbeat IPC: 0.34841 cumulative IPC: 0.38186 (Simulation time: 0 hr 10 min 19 sec) 
Heartbeat CPU  0 instructions:  304000000 cycles:  641401527 heartbeat IPC: 0.36850 cumulative IPC: 0.38180 (Simulation time: 0 hr 10 min 21 sec) 
Heartbeat CPU  0 instructions:  305000002 cycles:  644021651 heartbeat IPC: 0.38166 cumulative IPC: 0.38180 (Simulation time: 0 hr 10 min 23 sec) 
Heartbeat CPU  0 instructions:  306000000 cycles:  646909090 heartbeat IPC: 0.34633 cumulative IPC: 0.38161 (Simulation time: 0 hr 10 min 26 sec) 
Heartbeat CPU  0 instructions:  307000000 cycles:  649629459 heartbeat IPC: 0.36760 cumulative IPC: 0.38154 (Simulation time: 0 hr 10 min 28 sec) 
Heartbeat CPU  0 instructions:  308000000 cycles:  652343382 heartbeat IPC: 0.36847 cumulative IPC: 0.38147 (Simulation time: 0 hr 10 min 30 sec) 
Heartbeat CPU  0 instructions:  309000000 cycles:  655022031 heartbeat IPC: 0.37332 cumulative IPC: 0.38143 (Simulation time: 0 hr 10 min 32 sec) 
Heartbeat CPU  0 instructions:  310000000 cycles:  657446248 heartbeat IPC: 0.41250 cumulative IPC: 0.38157 (Simulation time: 0 hr 10 min 34 sec) 
Heartbeat CPU  0 instructions:  311000000 cycles:  659332206 heartbeat IPC: 0.53023 cumulative IPC: 0.38207 (Simulation time: 0 hr 10 min 36 sec) 
Heartbeat CPU  0 instructions:  312000000 cycles:  661963293 heartbeat IPC: 0.38007 cumulative IPC: 0.38207 (Simulation time: 0 hr 10 min 38 sec) 
Heartbeat CPU  0 instructions:  313000002 cycles:  664704816 heartbeat IPC: 0.36476 cumulative IPC: 0.38198 (Simulation time: 0 hr 10 min 41 sec) 
Heartbeat CPU  0 instructions:  314000002 cycles:  667431308 heartbeat IPC: 0.36677 cumulative IPC: 0.38191 (Simulation time: 0 hr 10 min 43 sec) 
Heartbeat CPU  0 instructions:  315000001 cycles:  670189438 heartbeat IPC: 0.36256 cumulative IPC: 0.38181 (Simulation time: 0 hr 10 min 45 sec) 
Heartbeat CPU  0 instructions:  316000000 cycles:  672991224 heartbeat IPC: 0.35691 cumulative IPC: 0.38169 (Simulation time: 0 hr 10 min 48 sec) 
Heartbeat CPU  0 instructions:  317000003 cycles:  675738451 heartbeat IPC: 0.36400 cumulative IPC: 0.38160 (Simulation time: 0 hr 10 min 50 sec) 
Heartbeat CPU  0 instructions:  318000000 cycles:  678466327 heartbeat IPC: 0.36658 cumulative IPC: 0.38153 (Simulation time: 0 hr 10 min 52 sec) 
Heartbeat CPU  0 instructions:  319000000 cycles:  681131180 heartbeat IPC: 0.37526 cumulative IPC: 0.38150 (Simulation time: 0 hr 10 min 55 sec) 
Heartbeat CPU  0 instructions:  320000000 cycles:  683804714 heartbeat IPC: 0.37404 cumulative IPC: 0.38147 (Simulation time: 0 hr 10 min 57 sec) 
Heartbeat CPU  0 instructions:  321000003 cycles:  686526955 heartbeat IPC: 0.36735 cumulative IPC: 0.38140 (Simulation time: 0 hr 10 min 59 sec) 
Heartbeat CPU  0 instructions:  322000002 cycles:  689146100 heartbeat IPC: 0.38180 cumulative IPC: 0.38140 (Simulation time: 0 hr 11 min 1 sec) 
Heartbeat CPU  0 instructions:  323000000 cycles:  691770217 heartbeat IPC: 0.38108 cumulative IPC: 0.38140 (Simulation time: 0 hr 11 min 3 sec) 
Heartbeat CPU  0 instructions:  324000000 cycles:  693838109 heartbeat IPC: 0.48358 cumulative IPC: 0.38176 (Simulation time: 0 hr 11 min 5 sec) 
Heartbeat CPU  0 instructions:  325000001 cycles:  696234931 heartbeat IPC: 0.41722 cumulative IPC: 0.38191 (Simulation time: 0 hr 11 min 7 sec) 
Heartbeat CPU  0 instructions:  326000000 cycles:  698699731 heartbeat IPC: 0.40571 cumulative IPC: 0.38201 (Simulation time: 0 hr 11 min 9 sec) 
Heartbeat CPU  0 instructions:  327000000 cycles:  701124932 heartbeat IPC: 0.41234 cumulative IPC: 0.38213 (Simulation time: 0 hr 11 min 12 sec) 
Heartbeat CPU  0 instructions:  328000000 cycles:  703804168 heartbeat IPC: 0.37324 cumulative IPC: 0.38209 (Simulation time: 0 hr 11 min 14 sec) 
Heartbeat CPU  0 instructions:  329000003 cycles:  706302646 heartbeat IPC: 0.40024 cumulative IPC: 0.38216 (Simulation time: 0 hr 11 min 16 sec) 
Heartbeat CPU  0 instructions:  330000001 cycles:  708648856 heartbeat IPC: 0.42622 cumulative IPC: 0.38234 (Simulation time: 0 hr 11 min 18 sec) 
Heartbeat CPU  0 instructions:  331000001 cycles:  711018314 heartbeat IPC: 0.42204 cumulative IPC: 0.38249 (Simulation time: 0 hr 11 min 21 sec) 
Heartbeat CPU  0 instructions:  332000000 cycles:  713609836 heartbeat IPC: 0.38587 cumulative IPC: 0.38251 (Simulation time: 0 hr 11 min 23 sec) 
Heartbeat CPU  0 instructions:  333000000 cycles:  716187220 heartbeat IPC: 0.38799 cumulative IPC: 0.38253 (Simulation time: 0 hr 11 min 25 sec) 
Heartbeat CPU  0 instructions:  334000001 cycles:  718730053 heartbeat IPC: 0.39326 cumulative IPC: 0.38257 (Simulation time: 0 hr 11 min 27 sec) 
Heartbeat CPU  0 instructions:  335000000 cycles:  721331066 heartbeat IPC: 0.38447 cumulative IPC: 0.38258 (Simulation time: 0 hr 11 min 29 sec) 
Heartbeat CPU  0 instructions:  336000000 cycles:  723730965 heartbeat IPC: 0.41668 cumulative IPC: 0.38272 (Simulation time: 0 hr 11 min 32 sec) 
Heartbeat CPU  0 instructions:  337000000 cycles:  726120149 heartbeat IPC: 0.41855 cumulative IPC: 0.38285 (Simulation time: 0 hr 11 min 34 sec) 
Heartbeat CPU  0 instructions:  338000001 cycles:  728597584 heartbeat IPC: 0.40364 cumulative IPC: 0.38294 (Simulation time: 0 hr 11 min 36 sec) 
Heartbeat CPU  0 instructions:  339000000 cycles:  731064929 heartbeat IPC: 0.40529 cumulative IPC: 0.38302 (Simulation time: 0 hr 11 min 38 sec) 
Heartbeat CPU  0 instructions:  340000000 cycles:  733692649 heartbeat IPC: 0.38056 cumulative IPC: 0.38301 (Simulation time: 0 hr 11 min 40 sec) 
Heartbeat CPU  0 instructions:  341000002 cycles:  736299549 heartbeat IPC: 0.38360 cumulative IPC: 0.38302 (Simulation time: 0 hr 11 min 43 sec) 
Heartbeat CPU  0 instructions:  342000001 cycles:  739056047 heartbeat IPC: 0.36278 cumulative IPC: 0.38293 (Simulation time: 0 hr 11 min 45 sec) 
Heartbeat CPU  0 instructions:  343000003 cycles:  741647547 heartbeat IPC: 0.38588 cumulative IPC: 0.38294 (Simulation time: 0 hr 11 min 47 sec) 
Heartbeat CPU  0 instructions:  344000000 cycles:  744175554 heartbeat IPC: 0.39557 cumulative IPC: 0.38299 (Simulation time: 0 hr 11 min 49 sec) 
Heartbeat CPU  0 instructions:  345000003 cycles:  746966082 heartbeat IPC: 0.35836 cumulative IPC: 0.38288 (Simulation time: 0 hr 11 min 52 sec) 
Heartbeat CPU  0 instructions:  346000001 cycles:  749685179 heartbeat IPC: 0.36777 cumulative IPC: 0.38282 (Simulation time: 0 hr 11 min 54 sec) 
Heartbeat CPU  0 instructions:  347000002 cycles:  752176242 heartbeat IPC: 0.40144 cumulative IPC: 0.38289 (Simulation time: 0 hr 11 min 56 sec) 
Heartbeat CPU  0 instructions:  348000000 cycles:  754544715 heartbeat IPC: 0.42221 cumulative IPC: 0.38304 (Simulation time: 0 hr 11 min 58 sec) 
Heartbeat CPU  0 instructions:  349000000 cycles:  757175576 heartbeat IPC: 0.38010 cumulative IPC: 0.38302 (Simulation time: 0 hr 12 min 0 sec) 
Heartbeat CPU  0 instructions:  350000001 cycles:  759687062 heartbeat IPC: 0.39817 cumulative IPC: 0.38308 (Simulation time: 0 hr 12 min 3 sec) 
Heartbeat CPU  0 instructions:  351000000 cycles:  762481922 heartbeat IPC: 0.35780 cumulative IPC: 0.38297 (Simulation time: 0 hr 12 min 5 sec) 
Heartbeat CPU  0 instructions:  352000000 cycles:  765151945 heartbeat IPC: 0.37453 cumulative IPC: 0.38294 (Simulation time: 0 hr 12 min 7 sec) 
Heartbeat CPU  0 instructions:  353000002 cycles:  767715970 heartbeat IPC: 0.39001 cumulative IPC: 0.38297 (Simulation time: 0 hr 12 min 10 sec) 
Heartbeat CPU  0 instructions:  354000000 cycles:  770365606 heartbeat IPC: 0.37741 cumulative IPC: 0.38294 (Simulation time: 0 hr 12 min 12 sec) 
Heartbeat CPU  0 instructions:  355000003 cycles:  773102009 heartbeat IPC: 0.36544 cumulative IPC: 0.38287 (Simulation time: 0 hr 12 min 14 sec) 
Heartbeat CPU  0 instructions:  356000000 cycles:  775831813 heartbeat IPC: 0.36633 cumulative IPC: 0.38281 (Simulation time: 0 hr 12 min 16 sec) 
Heartbeat CPU  0 instructions:  357000000 cycles:  778503171 heartbeat IPC: 0.37434 cumulative IPC: 0.38277 (Simulation time: 0 hr 12 min 19 sec) 
Heartbeat CPU  0 instructions:  358000000 cycles:  781202420 heartbeat IPC: 0.37047 cumulative IPC: 0.38272 (Simulation time: 0 hr 12 min 21 sec) 
Heartbeat CPU  0 instructions:  359000000 cycles:  783885902 heartbeat IPC: 0.37265 cumulative IPC: 0.38268 (Simulation time: 0 hr 12 min 23 sec) 
Heartbeat CPU  0 instructions:  360000000 cycles:  786557433 heartbeat IPC: 0.37432 cumulative IPC: 0.38265 (Simulation time: 0 hr 12 min 25 sec) 
Heartbeat CPU  0 instructions:  361000000 cycles:  789084599 heartbeat IPC: 0.39570 cumulative IPC: 0.38270 (Simulation time: 0 hr 12 min 28 sec) 
Heartbeat CPU  0 instructions:  362000000 cycles:  791977915 heartbeat IPC: 0.34562 cumulative IPC: 0.38254 (Simulation time: 0 hr 12 min 30 sec) 
Heartbeat CPU  0 instructions:  363000000 cycles:  794758267 heartbeat IPC: 0.35967 cumulative IPC: 0.38245 (Simulation time: 0 hr 12 min 32 sec) 
Heartbeat CPU  0 instructions:  364000000 cycles:  797157378 heartbeat IPC: 0.41682 cumulative IPC: 0.38257 (Simulation time: 0 hr 12 min 34 sec) 
Heartbeat CPU  0 instructions:  365000000 cycles:  799567379 heartbeat IPC: 0.41494 cumulative IPC: 0.38268 (Simulation time: 0 hr 12 min 36 sec) 
Heartbeat CPU  0 instructions:  366000002 cycles:  801421135 heartbeat IPC: 0.53945 cumulative IPC: 0.38310 (Simulation time: 0 hr 12 min 38 sec) 
Heartbeat CPU  0 instructions:  367000000 cycles:  803173221 heartbeat IPC: 0.57075 cumulative IPC: 0.38357 (Simulation time: 0 hr 12 min 40 sec) 
Heartbeat CPU  0 instructions:  368000000 cycles:  805846631 heartbeat IPC: 0.37405 cumulative IPC: 0.38354 (Simulation time: 0 hr 12 min 42 sec) 
Heartbeat CPU  0 instructions:  369000000 cycles:  808630410 heartbeat IPC: 0.35922 cumulative IPC: 0.38344 (Simulation time: 0 hr 12 min 44 sec) 
Heartbeat CPU  0 instructions:  370000000 cycles:  811481020 heartbeat IPC: 0.35080 cumulative IPC: 0.38331 (Simulation time: 0 hr 12 min 46 sec) 
Heartbeat CPU  0 instructions:  371000003 cycles:  814139656 heartbeat IPC: 0.37613 cumulative IPC: 0.38328 (Simulation time: 0 hr 12 min 49 sec) 
Heartbeat CPU  0 instructions:  372000000 cycles:  816796100 heartbeat IPC: 0.37644 cumulative IPC: 0.38325 (Simulation time: 0 hr 12 min 51 sec) 
Heartbeat CPU  0 instructions:  373000002 cycles:  819457167 heartbeat IPC: 0.37579 cumulative IPC: 0.38323 (Simulation time: 0 hr 12 min 53 sec) 
Heartbeat CPU  0 instructions:  374000001 cycles:  822246021 heartbeat IPC: 0.35857 cumulative IPC: 0.38313 (Simulation time: 0 hr 12 min 55 sec) 
Heartbeat CPU  0 instructions:  375000000 cycles:  825011553 heartbeat IPC: 0.36159 cumulative IPC: 0.38305 (Simulation time: 0 hr 12 min 58 sec) 
Heartbeat CPU  0 instructions:  376000000 cycles:  827781094 heartbeat IPC: 0.36107 cumulative IPC: 0.38296 (Simulation time: 0 hr 13 min 0 sec) 
Heartbeat CPU  0 instructions:  377000002 cycles:  830544394 heartbeat IPC: 0.36189 cumulative IPC: 0.38288 (Simulation time: 0 hr 13 min 2 sec) 
Heartbeat CPU  0 instructions:  378000001 cycles:  833303966 heartbeat IPC: 0.36237 cumulative IPC: 0.38280 (Simulation time: 0 hr 13 min 5 sec) 
Heartbeat CPU  0 instructions:  379000000 cycles:  836152112 heartbeat IPC: 0.35111 cumulative IPC: 0.38268 (Simulation time: 0 hr 13 min 7 sec) 
Heartbeat CPU  0 instructions:  380000000 cycles:  838965995 heartbeat IPC: 0.35538 cumulative IPC: 0.38258 (Simulation time: 0 hr 13 min 9 sec) 
Heartbeat CPU  0 instructions:  381000002 cycles:  841786438 heartbeat IPC: 0.35455 cumulative IPC: 0.38247 (Simulation time: 0 hr 13 min 11 sec) 
Heartbeat CPU  0 instructions:  382000000 cycles:  844492803 heartbeat IPC: 0.36950 cumulative IPC: 0.38242 (Simulation time: 0 hr 13 min 14 sec) 
Heartbeat CPU  0 instructions:  383000001 cycles:  847208069 heartbeat IPC: 0.36829 cumulative IPC: 0.38237 (Simulation time: 0 hr 13 min 16 sec) 
Heartbeat CPU  0 instructions:  384000000 cycles:  850001906 heartbeat IPC: 0.35793 cumulative IPC: 0.38228 (Simulation time: 0 hr 13 min 18 sec) 
Heartbeat CPU  0 instructions:  385000002 cycles:  852716581 heartbeat IPC: 0.36837 cumulative IPC: 0.38223 (Simulation time: 0 hr 13 min 20 sec) 
Heartbeat CPU  0 instructions:  386000000 cycles:  855288029 heartbeat IPC: 0.38889 cumulative IPC: 0.38225 (Simulation time: 0 hr 13 min 23 sec) 
Heartbeat CPU  0 instructions:  387000000 cycles:  857895947 heartbeat IPC: 0.38345 cumulative IPC: 0.38225 (Simulation time: 0 hr 13 min 25 sec) 
Heartbeat CPU  0 instructions:  388000000 cycles:  860692852 heartbeat IPC: 0.35754 cumulative IPC: 0.38216 (Simulation time: 0 hr 13 min 27 sec) 
Heartbeat CPU  0 instructions:  389000000 cycles:  863350781 heartbeat IPC: 0.37623 cumulative IPC: 0.38214 (Simulation time: 0 hr 13 min 29 sec) 
Heartbeat CPU  0 instructions:  390000001 cycles:  866148161 heartbeat IPC: 0.35748 cumulative IPC: 0.38205 (Simulation time: 0 hr 13 min 32 sec) 
Heartbeat CPU  0 instructions:  391000001 cycles:  868888519 heartbeat IPC: 0.36492 cumulative IPC: 0.38199 (Simulation time: 0 hr 13 min 34 sec) 
Heartbeat CPU  0 instructions:  392000000 cycles:  871487192 heartbeat IPC: 0.38481 cumulative IPC: 0.38200 (Simulation time: 0 hr 13 min 36 sec) 
Heartbeat CPU  0 instructions:  393000001 cycles:  874271734 heartbeat IPC: 0.35913 cumulative IPC: 0.38191 (Simulation time: 0 hr 13 min 38 sec) 
Heartbeat CPU  0 instructions:  394000002 cycles:  876971733 heartbeat IPC: 0.37037 cumulative IPC: 0.38187 (Simulation time: 0 hr 13 min 40 sec) 
Heartbeat CPU  0 instructions:  395000000 cycles:  879523897 heartbeat IPC: 0.39182 cumulative IPC: 0.38191 (Simulation time: 0 hr 13 min 42 sec) 
Heartbeat CPU  0 instructions:  396000000 cycles:  882341883 heartbeat IPC: 0.35486 cumulative IPC: 0.38181 (Simulation time: 0 hr 13 min 45 sec) 
Heartbeat CPU  0 instructions:  397000000 cycles:  885098216 heartbeat IPC: 0.36280 cumulative IPC: 0.38174 (Simulation time: 0 hr 13 min 47 sec) 
Heartbeat CPU  0 instructions:  398000000 cycles:  887609339 heartbeat IPC: 0.39823 cumulative IPC: 0.38179 (Simulation time: 0 hr 13 min 49 sec) 
Heartbeat CPU  0 instructions:  399000000 cycles:  890398555 heartbeat IPC: 0.35852 cumulative IPC: 0.38171 (Simulation time: 0 hr 13 min 51 sec) 
Heartbeat CPU  0 instructions:  400000000 cycles:  892942500 heartbeat IPC: 0.39309 cumulative IPC: 0.38175 (Simulation time: 0 hr 13 min 53 sec) 
Heartbeat CPU  0 instructions:  401000003 cycles:  895626860 heartbeat IPC: 0.37253 cumulative IPC: 0.38172 (Simulation time: 0 hr 13 min 56 sec) 
Heartbeat CPU  0 instructions:  402000001 cycles:  898172631 heartbeat IPC: 0.39281 cumulative IPC: 0.38175 (Simulation time: 0 hr 13 min 58 sec) 
Heartbeat CPU  0 instructions:  403000001 cycles:  900634825 heartbeat IPC: 0.40614 cumulative IPC: 0.38183 (Simulation time: 0 hr 14 min 0 sec) 
Heartbeat CPU  0 instructions:  404000000 cycles:  903492433 heartbeat IPC: 0.34994 cumulative IPC: 0.38171 (Simulation time: 0 hr 14 min 2 sec) 
Heartbeat CPU  0 instructions:  405000001 cycles:  906327993 heartbeat IPC: 0.35266 cumulative IPC: 0.38161 (Simulation time: 0 hr 14 min 4 sec) 
Heartbeat CPU  0 instructions:  406000002 cycles:  909145409 heartbeat IPC: 0.35494 cumulative IPC: 0.38152 (Simulation time: 0 hr 14 min 7 sec) 
Heartbeat CPU  0 instructions:  407000000 cycles:  911781732 heartbeat IPC: 0.37932 cumulative IPC: 0.38151 (Simulation time: 0 hr 14 min 9 sec) 
Heartbeat CPU  0 instructions:  408000000 cycles:  914515531 heartbeat IPC: 0.36579 cumulative IPC: 0.38146 (Simulation time: 0 hr 14 min 11 sec) 
Heartbeat CPU  0 instructions:  409000003 cycles:  917237733 heartbeat IPC: 0.36735 cumulative IPC: 0.38141 (Simulation time: 0 hr 14 min 13 sec) 
Heartbeat CPU  0 instructions:  410000002 cycles:  919864603 heartbeat IPC: 0.38068 cumulative IPC: 0.38141 (Simulation time: 0 hr 14 min 15 sec) 
Heartbeat CPU  0 instructions:  411000000 cycles:  922602416 heartbeat IPC: 0.36525 cumulative IPC: 0.38135 (Simulation time: 0 hr 14 min 18 sec) 
Heartbeat CPU  0 instructions:  412000000 cycles:  925264164 heartbeat IPC: 0.37569 cumulative IPC: 0.38133 (Simulation time: 0 hr 14 min 20 sec) 
Heartbeat CPU  0 instructions:  413000001 cycles:  928068562 heartbeat IPC: 0.35658 cumulative IPC: 0.38125 (Simulation time: 0 hr 14 min 22 sec) 
Heartbeat CPU  0 instructions:  414000003 cycles:  930670393 heartbeat IPC: 0.38435 cumulative IPC: 0.38126 (Simulation time: 0 hr 14 min 24 sec) 
Heartbeat CPU  0 instructions:  415000002 cycles:  933326252 heartbeat IPC: 0.37653 cumulative IPC: 0.38124 (Simulation time: 0 hr 14 min 26 sec) 
Heartbeat CPU  0 instructions:  416000000 cycles:  936001244 heartbeat IPC: 0.37383 cumulative IPC: 0.38122 (Simulation time: 0 hr 14 min 29 sec) 
Heartbeat CPU  0 instructions:  417000003 cycles:  938726875 heartbeat IPC: 0.36689 cumulative IPC: 0.38117 (Simulation time: 0 hr 14 min 31 sec) 
Heartbeat CPU  0 instructions:  418000001 cycles:  941490520 heartbeat IPC: 0.36184 cumulative IPC: 0.38111 (Simulation time: 0 hr 14 min 33 sec) 
Heartbeat CPU  0 instructions:  419000000 cycles:  944302195 heartbeat IPC: 0.35566 cumulative IPC: 0.38102 (Simulation time: 0 hr 14 min 35 sec) 
Heartbeat CPU  0 instructions:  420000000 cycles:  947035447 heartbeat IPC: 0.36586 cumulative IPC: 0.38097 (Simulation time: 0 hr 14 min 38 sec) 
Heartbeat CPU  0 instructions:  421000000 cycles:  949536578 heartbeat IPC: 0.39982 cumulative IPC: 0.38103 (Simulation time: 0 hr 14 min 40 sec) 
Heartbeat CPU  0 instructions:  422000001 cycles:  952354158 heartbeat IPC: 0.35491 cumulative IPC: 0.38094 (Simulation time: 0 hr 14 min 42 sec) 
Heartbeat CPU  0 instructions:  423000003 cycles:  955039342 heartbeat IPC: 0.37241 cumulative IPC: 0.38092 (Simulation time: 0 hr 14 min 44 sec) 
Heartbeat CPU  0 instructions:  424000000 cycles:  957595747 heartbeat IPC: 0.39117 cumulative IPC: 0.38095 (Simulation time: 0 hr 14 min 46 sec) 
Heartbeat CPU  0 instructions:  425000001 cycles:  960313547 heartbeat IPC: 0.36795 cumulative IPC: 0.38091 (Simulation time: 0 hr 14 min 48 sec) 
Heartbeat CPU  0 instructions:  426000003 cycles:  962798762 heartbeat IPC: 0.40238 cumulative IPC: 0.38097 (Simulation time: 0 hr 14 min 51 sec) 
Heartbeat CPU  0 instructions:  427000002 cycles:  965369436 heartbeat IPC: 0.38900 cumulative IPC: 0.38099 (Simulation time: 0 hr 14 min 53 sec) 
Heartbeat CPU  0 instructions:  428000000 cycles:  967952753 heartbeat IPC: 0.38710 cumulative IPC: 0.38101 (Simulation time: 0 hr 14 min 55 sec) 
Heartbeat CPU  0 instructions:  429000003 cycles:  970496603 heartbeat IPC: 0.39311 cumulative IPC: 0.38105 (Simulation time: 0 hr 14 min 57 sec) 
Heartbeat CPU  0 instructions:  430000002 cycles:  973245465 heartbeat IPC: 0.36379 cumulative IPC: 0.38099 (Simulation time: 0 hr 14 min 59 sec) 
Heartbeat CPU  0 instructions:  431000001 cycles:  975737906 heartbeat IPC: 0.40121 cumulative IPC: 0.38105 (Simulation time: 0 hr 15 min 1 sec) 
Heartbeat CPU  0 instructions:  432000000 cycles:  978433304 heartbeat IPC: 0.37100 cumulative IPC: 0.38102 (Simulation time: 0 hr 15 min 4 sec) 
Heartbeat CPU  0 instructions:  433000003 cycles:  981093296 heartbeat IPC: 0.37594 cumulative IPC: 0.38100 (Simulation time: 0 hr 15 min 6 sec) 
Heartbeat CPU  0 instructions:  434000000 cycles:  983629580 heartbeat IPC: 0.39428 cumulative IPC: 0.38104 (Simulation time: 0 hr 15 min 8 sec) 
Heartbeat CPU  0 instructions:  435000000 cycles:  986418468 heartbeat IPC: 0.35857 cumulative IPC: 0.38097 (Simulation time: 0 hr 15 min 10 sec) 
Heartbeat CPU  0 instructions:  436000000 cycles:  988691398 heartbeat IPC: 0.43996 cumulative IPC: 0.38112 (Simulation time: 0 hr 15 min 12 sec) 
Heartbeat CPU  0 instructions:  437000003 cycles:  991253435 heartbeat IPC: 0.39032 cumulative IPC: 0.38115 (Simulation time: 0 hr 15 min 14 sec) 
Heartbeat CPU  0 instructions:  438000001 cycles:  994120070 heartbeat IPC: 0.34884 cumulative IPC: 0.38104 (Simulation time: 0 hr 15 min 17 sec) 
Heartbeat CPU  0 instructions:  439000000 cycles:  997000708 heartbeat IPC: 0.34714 cumulative IPC: 0.38093 (Simulation time: 0 hr 15 min 19 sec) 
Heartbeat CPU  0 instructions:  440000000 cycles:  999763210 heartbeat IPC: 0.36199 cumulative IPC: 0.38088 (Simulation time: 0 hr 15 min 21 sec) 
Heartbeat CPU  0 instructions:  441000003 cycles: 1002545100 heartbeat IPC: 0.35947 cumulative IPC: 0.38081 (Simulation time: 0 hr 15 min 23 sec) 
Heartbeat CPU  0 instructions:  442000002 cycles: 1005304913 heartbeat IPC: 0.36234 cumulative IPC: 0.38075 (Simulation time: 0 hr 15 min 26 sec) 
Heartbeat CPU  0 instructions:  443000001 cycles: 1008135701 heartbeat IPC: 0.35326 cumulative IPC: 0.38067 (Simulation time: 0 hr 15 min 28 sec) 
Heartbeat CPU  0 instructions:  444000000 cycles: 1010907150 heartbeat IPC: 0.36082 cumulative IPC: 0.38061 (Simulation time: 0 hr 15 min 30 sec) 
Heartbeat CPU  0 instructions:  445000000 cycles: 1013768103 heartbeat IPC: 0.34953 cumulative IPC: 0.38051 (Simulation time: 0 hr 15 min 32 sec) 
Heartbeat CPU  0 instructions:  446000002 cycles: 1016608203 heartbeat IPC: 0.35210 cumulative IPC: 0.38042 (Simulation time: 0 hr 15 min 35 sec) 
Heartbeat CPU  0 instructions:  447000000 cycles: 1019375033 heartbeat IPC: 0.36142 cumulative IPC: 0.38036 (Simulation time: 0 hr 15 min 37 sec) 
Heartbeat CPU  0 instructions:  448000000 cycles: 1021897532 heartbeat IPC: 0.39643 cumulative IPC: 0.38041 (Simulation time: 0 hr 15 min 39 sec) 
Heartbeat CPU  0 instructions:  449000001 cycles: 1024756842 heartbeat IPC: 0.34974 cumulative IPC: 0.38031 (Simulation time: 0 hr 15 min 41 sec) 
Heartbeat CPU  0 instructions:  450000002 cycles: 1027511918 heartbeat IPC: 0.36297 cumulative IPC: 0.38026 (Simulation time: 0 hr 15 min 44 sec) 
Heartbeat CPU  0 instructions:  451000001 cycles: 1030195703 heartbeat IPC: 0.37261 cumulative IPC: 0.38024 (Simulation time: 0 hr 15 min 46 sec) 
Heartbeat CPU  0 instructions:  452000000 cycles: 1033012445 heartbeat IPC: 0.35502 cumulative IPC: 0.38016 (Simulation time: 0 hr 15 min 48 sec) 
Heartbeat CPU  0 instructions:  453000001 cycles: 1035805803 heartbeat IPC: 0.35799 cumulative IPC: 0.38009 (Simulation time: 0 hr 15 min 50 sec) 
Heartbeat CPU  0 instructions:  454000003 cycles: 1038656284 heartbeat IPC: 0.35082 cumulative IPC: 0.38000 (Simulation time: 0 hr 15 min 53 sec) 
Heartbeat CPU  0 instructions:  455000000 cycles: 1041367431 heartbeat IPC: 0.36885 cumulative IPC: 0.37997 (Simulation time: 0 hr 15 min 55 sec) 
Heartbeat CPU  0 instructions:  456000000 cycles: 1044184208 heartbeat IPC: 0.35502 cumulative IPC: 0.37990 (Simulation time: 0 hr 15 min 57 sec) 
Heartbeat CPU  0 instructions:  457000000 cycles: 1046904851 heartbeat IPC: 0.36756 cumulative IPC: 0.37986 (Simulation time: 0 hr 15 min 59 sec) 
Heartbeat CPU  0 instructions:  458000003 cycles: 1049686899 heartbeat IPC: 0.35945 cumulative IPC: 0.37980 (Simulation time: 0 hr 16 min 1 sec) 
Heartbeat CPU  0 instructions:  459000001 cycles: 1052416554 heartbeat IPC: 0.36635 cumulative IPC: 0.37976 (Simulation time: 0 hr 16 min 4 sec) 
Heartbeat CPU  0 instructions:  460000000 cycles: 1055128967 heartbeat IPC: 0.36868 cumulative IPC: 0.37973 (Simulation time: 0 hr 16 min 6 sec) 
Heartbeat CPU  0 instructions:  461000002 cycles: 1057877165 heartbeat IPC: 0.36388 cumulative IPC: 0.37968 (Simulation time: 0 hr 16 min 8 sec) 
Heartbeat CPU  0 instructions:  462000001 cycles: 1060603767 heartbeat IPC: 0.36676 cumulative IPC: 0.37965 (Simulation time: 0 hr 16 min 10 sec) 
Heartbeat CPU  0 instructions:  463000001 cycles: 1063425897 heartbeat IPC: 0.35434 cumulative IPC: 0.37957 (Simulation time: 0 hr 16 min 13 sec) 
Heartbeat CPU  0 instructions:  464000000 cycles: 1066218550 heartbeat IPC: 0.35808 cumulative IPC: 0.37951 (Simulation time: 0 hr 16 min 15 sec) 
Heartbeat CPU  0 instructions:  465000001 cycles: 1068845613 heartbeat IPC: 0.38065 cumulative IPC: 0.37951 (Simulation time: 0 hr 16 min 17 sec) 
Heartbeat CPU  0 instructions:  466000000 cycles: 1071560826 heartbeat IPC: 0.36829 cumulative IPC: 0.37948 (Simulation time: 0 hr 16 min 19 sec) 
Heartbeat CPU  0 instructions:  467000003 cycles: 1074263193 heartbeat IPC: 0.37005 cumulative IPC: 0.37945 (Simulation time: 0 hr 16 min 21 sec) 
Heartbeat CPU  0 instructions:  468000000 cycles: 1076897833 heartbeat IPC: 0.37956 cumulative IPC: 0.37945 (Simulation time: 0 hr 16 min 24 sec) 
Heartbeat CPU  0 instructions:  469000002 cycles: 1079454039 heartbeat IPC: 0.39121 cumulative IPC: 0.37949 (Simulation time: 0 hr 16 min 26 sec) 
Heartbeat CPU  0 instructions:  470000000 cycles: 1082154962 heartbeat IPC: 0.37024 cumulative IPC: 0.37946 (Simulation time: 0 hr 16 min 28 sec) 
Heartbeat CPU  0 instructions:  471000000 cycles: 1084740391 heartbeat IPC: 0.38678 cumulative IPC: 0.37948 (Simulation time: 0 hr 16 min 30 sec) 
Heartbeat CPU  0 instructions:  472000000 cycles: 1087397871 heartbeat IPC: 0.37630 cumulative IPC: 0.37947 (Simulation time: 0 hr 16 min 32 sec) 
Heartbeat CPU  0 instructions:  473000001 cycles: 1090319446 heartbeat IPC: 0.34228 cumulative IPC: 0.37936 (Simulation time: 0 hr 16 min 35 sec) 
Heartbeat CPU  0 instructions:  474000000 cycles: 1092923509 heartbeat IPC: 0.38401 cumulative IPC: 0.37937 (Simulation time: 0 hr 16 min 37 sec) 
Heartbeat CPU  0 instructions:  475000000 cycles: 1095735288 heartbeat IPC: 0.35565 cumulative IPC: 0.37930 (Simulation time: 0 hr 16 min 39 sec) 
Heartbeat CPU  0 instructions:  476000000 cycles: 1098541724 heartbeat IPC: 0.35632 cumulative IPC: 0.37924 (Simulation time: 0 hr 16 min 41 sec) 
Heartbeat CPU  0 instructions:  477000003 cycles: 1101241472 heartbeat IPC: 0.37041 cumulative IPC: 0.37922 (Simulation time: 0 hr 16 min 43 sec) 
Heartbeat CPU  0 instructions:  478000001 cycles: 1103900626 heartbeat IPC: 0.37606 cumulative IPC: 0.37921 (Simulation time: 0 hr 16 min 46 sec) 
Heartbeat CPU  0 instructions:  479000001 cycles: 1106503260 heartbeat IPC: 0.38423 cumulative IPC: 0.37922 (Simulation time: 0 hr 16 min 48 sec) 
Heartbeat CPU  0 instructions:  480000000 cycles: 1109351618 heartbeat IPC: 0.35108 cumulative IPC: 0.37914 (Simulation time: 0 hr 16 min 50 sec) 
Heartbeat CPU  0 instructions:  481000000 cycles: 1111996848 heartbeat IPC: 0.37804 cumulative IPC: 0.37914 (Simulation time: 0 hr 16 min 52 sec) 
Heartbeat CPU  0 instructions:  482000000 cycles: 1114624161 heartbeat IPC: 0.38062 cumulative IPC: 0.37914 (Simulation time: 0 hr 16 min 54 sec) 
Heartbeat CPU  0 instructions:  483000000 cycles: 1117145965 heartbeat IPC: 0.39654 cumulative IPC: 0.37918 (Simulation time: 0 hr 16 min 56 sec) 
Heartbeat CPU  0 instructions:  484000000 cycles: 1119834697 heartbeat IPC: 0.37192 cumulative IPC: 0.37917 (Simulation time: 0 hr 16 min 59 sec) 
Heartbeat CPU  0 instructions:  485000000 cycles: 1122490818 heartbeat IPC: 0.37649 cumulative IPC: 0.37916 (Simulation time: 0 hr 17 min 1 sec) 
Heartbeat CPU  0 instructions:  486000000 cycles: 1125098139 heartbeat IPC: 0.38354 cumulative IPC: 0.37917 (Simulation time: 0 hr 17 min 3 sec) 
Heartbeat CPU  0 instructions:  487000003 cycles: 1127891279 heartbeat IPC: 0.35802 cumulative IPC: 0.37911 (Simulation time: 0 hr 17 min 5 sec) 
Heartbeat CPU  0 instructions:  488000000 cycles: 1130693942 heartbeat IPC: 0.35680 cumulative IPC: 0.37905 (Simulation time: 0 hr 17 min 8 sec) 
Heartbeat CPU  0 instructions:  489000000 cycles: 1133402607 heartbeat IPC: 0.36919 cumulative IPC: 0.37902 (Simulation time: 0 hr 17 min 10 sec) 
Heartbeat CPU  0 instructions:  490000003 cycles: 1136162192 heartbeat IPC: 0.36237 cumulative IPC: 0.37898 (Simulation time: 0 hr 17 min 12 sec) 
Heartbeat CPU  0 instructions:  491000001 cycles: 1138885806 heartbeat IPC: 0.36716 cumulative IPC: 0.37895 (Simulation time: 0 hr 17 min 14 sec) 
Heartbeat CPU  0 instructions:  492000000 cycles: 1141663128 heartbeat IPC: 0.36006 cumulative IPC: 0.37890 (Simulation time: 0 hr 17 min 16 sec) 
Heartbeat CPU  0 instructions:  493000000 cycles: 1144344881 heartbeat IPC: 0.37289 cumulative IPC: 0.37888 (Simulation time: 0 hr 17 min 19 sec) 
Heartbeat CPU  0 instructions:  494000000 cycles: 1146956196 heartbeat IPC: 0.38295 cumulative IPC: 0.37889 (Simulation time: 0 hr 17 min 21 sec) 
Heartbeat CPU  0 instructions:  495000001 cycles: 1149790443 heartbeat IPC: 0.35283 cumulative IPC: 0.37882 (Simulation time: 0 hr 17 min 23 sec) 
Heartbeat CPU  0 instructions:  496000000 cycles: 1152542966 heartbeat IPC: 0.36330 cumulative IPC: 0.37878 (Simulation time: 0 hr 17 min 25 sec) 
Heartbeat CPU  0 instructions:  497000001 cycles: 1155314322 heartbeat IPC: 0.36083 cumulative IPC: 0.37873 (Simulation time: 0 hr 17 min 28 sec) 
Heartbeat CPU  0 instructions:  498000000 cycles: 1158080660 heartbeat IPC: 0.36149 cumulative IPC: 0.37869 (Simulation time: 0 hr 17 min 30 sec) 
Heartbeat CPU  0 instructions:  499000002 cycles: 1160817018 heartbeat IPC: 0.36545 cumulative IPC: 0.37865 (Simulation time: 0 hr 17 min 32 sec) 
Heartbeat CPU  0 instructions:  500000000 cycles: 1163491868 heartbeat IPC: 0.37385 cumulative IPC: 0.37864 (Simulation time: 0 hr 17 min 34 sec) 
Heartbeat CPU  0 instructions:  501000000 cycles: 1166182278 heartbeat IPC: 0.37169 cumulative IPC: 0.37862 (Simulation time: 0 hr 17 min 37 sec) 
Heartbeat CPU  0 instructions:  502000000 cycles: 1168963299 heartbeat IPC: 0.35958 cumulative IPC: 0.37857 (Simulation time: 0 hr 17 min 39 sec) 
Heartbeat CPU  0 instructions:  503000002 cycles: 1171742543 heartbeat IPC: 0.35981 cumulative IPC: 0.37853 (Simulation time: 0 hr 17 min 41 sec) 
Heartbeat CPU  0 instructions:  504000000 cycles: 1174573253 heartbeat IPC: 0.35327 cumulative IPC: 0.37846 (Simulation time: 0 hr 17 min 43 sec) 
Heartbeat CPU  0 instructions:  505000001 cycles: 1177158687 heartbeat IPC: 0.38678 cumulative IPC: 0.37848 (Simulation time: 0 hr 17 min 45 sec) 
Heartbeat CPU  0 instructions:  506000001 cycles: 1179974846 heartbeat IPC: 0.35509 cumulative IPC: 0.37842 (Simulation time: 0 hr 17 min 48 sec) 
Heartbeat CPU  0 instructions:  507000003 cycles: 1182795220 heartbeat IPC: 0.35456 cumulative IPC: 0.37835 (Simulation time: 0 hr 17 min 50 sec) 
Heartbeat CPU  0 instructions:  508000000 cycles: 1185530579 heartbeat IPC: 0.36558 cumulative IPC: 0.37832 (Simulation time: 0 hr 17 min 52 sec) 
Heartbeat CPU  0 instructions:  509000001 cycles: 1188073182 heartbeat IPC: 0.39330 cumulative IPC: 0.37836 (Simulation time: 0 hr 17 min 54 sec) 
Heartbeat CPU  0 instructions:  510000003 cycles: 1190791132 heartbeat IPC: 0.36793 cumulative IPC: 0.37833 (Simulation time: 0 hr 17 min 56 sec) 
Heartbeat CPU  0 instructions:  511000001 cycles: 1193189576 heartbeat IPC: 0.41694 cumulative IPC: 0.37842 (Simulation time: 0 hr 17 min 59 sec) 
Heartbeat CPU  0 instructions:  512000000 cycles: 1195932292 heartbeat IPC: 0.36460 cumulative IPC: 0.37838 (Simulation time: 0 hr 18 min 1 sec) 
Heartbeat CPU  0 instructions:  513000001 cycles: 1198616367 heartbeat IPC: 0.37257 cumulative IPC: 0.37837 (Simulation time: 0 hr 18 min 3 sec) 
Heartbeat CPU  0 instructions:  514000002 cycles: 1201282558 heartbeat IPC: 0.37507 cumulative IPC: 0.37836 (Simulation time: 0 hr 18 min 5 sec) 
Heartbeat CPU  0 instructions:  515000001 cycles: 1203782892 heartbeat IPC: 0.39995 cumulative IPC: 0.37841 (Simulation time: 0 hr 18 min 7 sec) 
Heartbeat CPU  0 instructions:  516000000 cycles: 1206266669 heartbeat IPC: 0.40261 cumulative IPC: 0.37846 (Simulation time: 0 hr 18 min 9 sec) 
Heartbeat CPU  0 instructions:  517000002 cycles: 1209089237 heartbeat IPC: 0.35429 cumulative IPC: 0.37840 (Simulation time: 0 hr 18 min 12 sec) 
Heartbeat CPU  0 instructions:  518000001 cycles: 1211907951 heartbeat IPC: 0.35477 cumulative IPC: 0.37834 (Simulation time: 0 hr 18 min 14 sec) 
Heartbeat CPU  0 instructions:  519000001 cycles: 1214588803 heartbeat IPC: 0.37302 cumulative IPC: 0.37833 (Simulation time: 0 hr 18 min 16 sec) 
Heartbeat CPU  0 instructions:  520000000 cycles: 1217390245 heartbeat IPC: 0.35696 cumulative IPC: 0.37827 (Simulation time: 0 hr 18 min 18 sec) 
Heartbeat CPU  0 instructions:  521000000 cycles: 1220040953 heartbeat IPC: 0.37726 cumulative IPC: 0.37827 (Simulation time: 0 hr 18 min 20 sec) 
Heartbeat CPU  0 instructions:  522000000 cycles: 1222650384 heartbeat IPC: 0.38323 cumulative IPC: 0.37828 (Simulation time: 0 hr 18 min 22 sec) 
Heartbeat CPU  0 instructions:  523000002 cycles: 1225089026 heartbeat IPC: 0.41007 cumulative IPC: 0.37835 (Simulation time: 0 hr 18 min 24 sec) 
Heartbeat CPU  0 instructions:  524000000 cycles: 1227856816 heartbeat IPC: 0.36130 cumulative IPC: 0.37831 (Simulation time: 0 hr 18 min 27 sec) 
Heartbeat CPU  0 instructions:  525000000 cycles: 1230431465 heartbeat IPC: 0.38840 cumulative IPC: 0.37833 (Simulation time: 0 hr 18 min 29 sec) 
Heartbeat CPU  0 instructions:  526000000 cycles: 1233015027 heartbeat IPC: 0.38706 cumulative IPC: 0.37835 (Simulation time: 0 hr 18 min 31 sec) 
Heartbeat CPU  0 instructions:  527000000 cycles: 1235297123 heartbeat IPC: 0.43819 cumulative IPC: 0.37847 (Simulation time: 0 hr 18 min 33 sec) 
Heartbeat CPU  0 instructions:  528000000 cycles: 1237762414 heartbeat IPC: 0.40563 cumulative IPC: 0.37853 (Simulation time: 0 hr 18 min 35 sec) 
Heartbeat CPU  0 instructions:  529000001 cycles: 1240112180 heartbeat IPC: 0.42557 cumulative IPC: 0.37863 (Simulation time: 0 hr 18 min 37 sec) 
Heartbeat CPU  0 instructions:  530000000 cycles: 1242322450 heartbeat IPC: 0.45243 cumulative IPC: 0.37878 (Simulation time: 0 hr 18 min 39 sec) 
Heartbeat CPU  0 instructions:  531000001 cycles: 1244855764 heartbeat IPC: 0.39474 cumulative IPC: 0.37881 (Simulation time: 0 hr 18 min 41 sec) 
Heartbeat CPU  0 instructions:  532000000 cycles: 1247009245 heartbeat IPC: 0.46436 cumulative IPC: 0.37897 (Simulation time: 0 hr 18 min 43 sec) 
Heartbeat CPU  0 instructions:  533000000 cycles: 1249808032 heartbeat IPC: 0.35730 cumulative IPC: 0.37892 (Simulation time: 0 hr 18 min 46 sec) 
Heartbeat CPU  0 instructions:  534000003 cycles: 1252168691 heartbeat IPC: 0.42361 cumulative IPC: 0.37901 (Simulation time: 0 hr 18 min 48 sec) 
Heartbeat CPU  0 instructions:  535000002 cycles: 1254902051 heartbeat IPC: 0.36585 cumulative IPC: 0.37898 (Simulation time: 0 hr 18 min 50 sec) 
Heartbeat CPU  0 instructions:  536000000 cycles: 1257269382 heartbeat IPC: 0.42242 cumulative IPC: 0.37907 (Simulation time: 0 hr 18 min 52 sec) 
Heartbeat CPU  0 instructions:  537000002 cycles: 1259766304 heartbeat IPC: 0.40049 cumulative IPC: 0.37912 (Simulation time: 0 hr 18 min 54 sec) 
Heartbeat CPU  0 instructions:  538000000 cycles: 1262251759 heartbeat IPC: 0.40234 cumulative IPC: 0.37917 (Simulation time: 0 hr 18 min 56 sec) 
Heartbeat CPU  0 instructions:  539000001 cycles: 1264794955 heartbeat IPC: 0.39321 cumulative IPC: 0.37920 (Simulation time: 0 hr 18 min 58 sec) 
Heartbeat CPU  0 instructions:  540000000 cycles: 1267335872 heartbeat IPC: 0.39356 cumulative IPC: 0.37923 (Simulation time: 0 hr 19 min 1 sec) 
Heartbeat CPU  0 instructions:  541000001 cycles: 1270096677 heartbeat IPC: 0.36221 cumulative IPC: 0.37919 (Simulation time: 0 hr 19 min 3 sec) 
Heartbeat CPU  0 instructions:  542000001 cycles: 1272754838 heartbeat IPC: 0.37620 cumulative IPC: 0.37918 (Simulation time: 0 hr 19 min 5 sec) 
Heartbeat CPU  0 instructions:  543000002 cycles: 1275543812 heartbeat IPC: 0.35856 cumulative IPC: 0.37913 (Simulation time: 0 hr 19 min 7 sec) 
Heartbeat CPU  0 instructions:  544000000 cycles: 1278194622 heartbeat IPC: 0.37724 cumulative IPC: 0.37913 (Simulation time: 0 hr 19 min 9 sec) 
Heartbeat CPU  0 instructions:  545000001 cycles: 1280858108 heartbeat IPC: 0.37545 cumulative IPC: 0.37912 (Simulation time: 0 hr 19 min 12 sec) 
Heartbeat CPU  0 instructions:  546000001 cycles: 1283579090 heartbeat IPC: 0.36751 cumulative IPC: 0.37909 (Simulation time: 0 hr 19 min 14 sec) 
Heartbeat CPU  0 instructions:  547000000 cycles: 1286244684 heartbeat IPC: 0.37515 cumulative IPC: 0.37908 (Simulation time: 0 hr 19 min 16 sec) 
Heartbeat CPU  0 instructions:  548000000 cycles: 1288801455 heartbeat IPC: 0.39112 cumulative IPC: 0.37911 (Simulation time: 0 hr 19 min 18 sec) 
Heartbeat CPU  0 instructions:  549000000 cycles: 1291328536 heartbeat IPC: 0.39571 cumulative IPC: 0.37914 (Simulation time: 0 hr 19 min 20 sec) 
Heartbeat CPU  0 instructions:  550000001 cycles: 1294213187 heartbeat IPC: 0.34666 cumulative IPC: 0.37907 (Simulation time: 0 hr 19 min 22 sec) 
Heartbeat CPU  0 instructions:  551000003 cycles: 1296873228 heartbeat IPC: 0.37593 cumulative IPC: 0.37906 (Simulation time: 0 hr 19 min 24 sec) 
Heartbeat CPU  0 instructions:  552000000 cycles: 1299459117 heartbeat IPC: 0.38671 cumulative IPC: 0.37908 (Simulation time: 0 hr 19 min 27 sec) 
Heartbeat CPU  0 instructions:  553000002 cycles: 1302077599 heartbeat IPC: 0.38190 cumulative IPC: 0.37908 (Simulation time: 0 hr 19 min 29 sec) 
Heartbeat CPU  0 instructions:  554000000 cycles: 1304535001 heartbeat IPC: 0.40693 cumulative IPC: 0.37914 (Simulation time: 0 hr 19 min 31 sec) 
Heartbeat CPU  0 instructions:  555000003 cycles: 1307299070 heartbeat IPC: 0.36179 cumulative IPC: 0.37910 (Simulation time: 0 hr 19 min 33 sec) 
Heartbeat CPU  0 instructions:  556000000 cycles: 1309950555 heartbeat IPC: 0.37715 cumulative IPC: 0.37909 (Simulation time: 0 hr 19 min 35 sec) 
Heartbeat CPU  0 instructions:  557000000 cycles: 1312580221 heartbeat IPC: 0.38028 cumulative IPC: 0.37910 (Simulation time: 0 hr 19 min 37 sec) 
Heartbeat CPU  0 instructions:  558000001 cycles: 1315365272 heartbeat IPC: 0.35906 cumulative IPC: 0.37905 (Simulation time: 0 hr 19 min 40 sec) 
Heartbeat CPU  0 instructions:  559000001 cycles: 1318266901 heartbeat IPC: 0.34463 cumulative IPC: 0.37897 (Simulation time: 0 hr 19 min 42 sec) 
Heartbeat CPU  0 instructions:  560000000 cycles: 1321092509 heartbeat IPC: 0.35391 cumulative IPC: 0.37891 (Simulation time: 0 hr 19 min 44 sec) 
Heartbeat CPU  0 instructions:  561000002 cycles: 1323843847 heartbeat IPC: 0.36346 cumulative IPC: 0.37888 (Simulation time: 0 hr 19 min 46 sec) 
Heartbeat CPU  0 instructions:  562000002 cycles: 1326475030 heartbeat IPC: 0.38006 cumulative IPC: 0.37888 (Simulation time: 0 hr 19 min 49 sec) 
Heartbeat CPU  0 instructions:  563000000 cycles: 1329263935 heartbeat IPC: 0.35856 cumulative IPC: 0.37883 (Simulation time: 0 hr 19 min 51 sec) 
Heartbeat CPU  0 instructions:  564000000 cycles: 1331979785 heartbeat IPC: 0.36821 cumulative IPC: 0.37881 (Simulation time: 0 hr 19 min 53 sec) 
Heartbeat CPU  0 instructions:  565000000 cycles: 1334758627 heartbeat IPC: 0.35986 cumulative IPC: 0.37877 (Simulation time: 0 hr 19 min 55 sec) 
Heartbeat CPU  0 instructions:  566000001 cycles: 1337282770 heartbeat IPC: 0.39617 cumulative IPC: 0.37880 (Simulation time: 0 hr 19 min 57 sec) 
Heartbeat CPU  0 instructions:  567000000 cycles: 1340079775 heartbeat IPC: 0.35752 cumulative IPC: 0.37875 (Simulation time: 0 hr 20 min 0 sec) 
Heartbeat CPU  0 instructions:  568000000 cycles: 1342732327 heartbeat IPC: 0.37700 cumulative IPC: 0.37875 (Simulation time: 0 hr 20 min 2 sec) 
Heartbeat CPU  0 instructions:  569000001 cycles: 1345557327 heartbeat IPC: 0.35398 cumulative IPC: 0.37869 (Simulation time: 0 hr 20 min 4 sec) 
Heartbeat CPU  0 instructions:  570000002 cycles: 1348033389 heartbeat IPC: 0.40387 cumulative IPC: 0.37874 (Simulation time: 0 hr 20 min 6 sec) 
Heartbeat CPU  0 instructions:  571000000 cycles: 1350732531 heartbeat IPC: 0.37049 cumulative IPC: 0.37872 (Simulation time: 0 hr 20 min 8 sec) 
Heartbeat CPU  0 instructions:  572000000 cycles: 1353342971 heartbeat IPC: 0.38308 cumulative IPC: 0.37873 (Simulation time: 0 hr 20 min 10 sec) 
Heartbeat CPU  0 instructions:  573000001 cycles: 1355741104 heartbeat IPC: 0.41699 cumulative IPC: 0.37881 (Simulation time: 0 hr 20 min 12 sec) 
Heartbeat CPU  0 instructions:  574000001 cycles: 1358428887 heartbeat IPC: 0.37205 cumulative IPC: 0.37879 (Simulation time: 0 hr 20 min 15 sec) 
Heartbeat CPU  0 instructions:  575000002 cycles: 1360980691 heartbeat IPC: 0.39188 cumulative IPC: 0.37882 (Simulation time: 0 hr 20 min 17 sec) 
Heartbeat CPU  0 instructions:  576000000 cycles: 1363596217 heartbeat IPC: 0.38233 cumulative IPC: 0.37883 (Simulation time: 0 hr 20 min 19 sec) 
Heartbeat CPU  0 instructions:  577000000 cycles: 1366168601 heartbeat IPC: 0.38874 cumulative IPC: 0.37885 (Simulation time: 0 hr 20 min 21 sec) 
Heartbeat CPU  0 instructions:  578000002 cycles: 1368431330 heartbeat IPC: 0.44195 cumulative IPC: 0.37896 (Simulation time: 0 hr 20 min 23 sec) 
Heartbeat CPU  0 instructions:  579000000 cycles: 1371220689 heartbeat IPC: 0.35850 cumulative IPC: 0.37891 (Simulation time: 0 hr 20 min 25 sec) 
Heartbeat CPU  0 instructions:  580000000 cycles: 1374020215 heartbeat IPC: 0.35720 cumulative IPC: 0.37887 (Simulation time: 0 hr 20 min 27 sec) 
Heartbeat CPU  0 instructions:  581000001 cycles: 1376741242 heartbeat IPC: 0.36751 cumulative IPC: 0.37884 (Simulation time: 0 hr 20 min 30 sec) 
Heartbeat CPU  0 instructions:  582000001 cycles: 1379630808 heartbeat IPC: 0.34607 cumulative IPC: 0.37877 (Simulation time: 0 hr 20 min 32 sec) 
Heartbeat CPU  0 instructions:  583000000 cycles: 1382475695 heartbeat IPC: 0.35151 cumulative IPC: 0.37871 (Simulation time: 0 hr 20 min 34 sec) 
Heartbeat CPU  0 instructions:  584000000 cycles: 1385124335 heartbeat IPC: 0.37755 cumulative IPC: 0.37870 (Simulation time: 0 hr 20 min 36 sec) 
Heartbeat CPU  0 instructions:  585000003 cycles: 1387710593 heartbeat IPC: 0.38666 cumulative IPC: 0.37872 (Simulation time: 0 hr 20 min 38 sec) 
Heartbeat CPU  0 instructions:  586000000 cycles: 1390587753 heartbeat IPC: 0.34756 cumulative IPC: 0.37865 (Simulation time: 0 hr 20 min 41 sec) 
Heartbeat CPU  0 instructions:  587000000 cycles: 1393260495 heartbeat IPC: 0.37415 cumulative IPC: 0.37864 (Simulation time: 0 hr 20 min 43 sec) 
Heartbeat CPU  0 instructions:  588000000 cycles: 1396025155 heartbeat IPC: 0.36171 cumulative IPC: 0.37861 (Simulation time: 0 hr 20 min 45 sec) 
Heartbeat CPU  0 instructions:  589000000 cycles: 1398795122 heartbeat IPC: 0.36102 cumulative IPC: 0.37857 (Simulation time: 0 hr 20 min 47 sec) 
Heartbeat CPU  0 instructions:  590000001 cycles: 1401198542 heartbeat IPC: 0.41607 cumulative IPC: 0.37864 (Simulation time: 0 hr 20 min 49 sec) 
Heartbeat CPU  0 instructions:  591000003 cycles: 1403831599 heartbeat IPC: 0.37979 cumulative IPC: 0.37864 (Simulation time: 0 hr 20 min 51 sec) 
Heartbeat CPU  0 instructions:  592000000 cycles: 1406591692 heartbeat IPC: 0.36231 cumulative IPC: 0.37861 (Simulation time: 0 hr 20 min 54 sec) 
Heartbeat CPU  0 instructions:  593000000 cycles: 1409294762 heartbeat IPC: 0.36995 cumulative IPC: 0.37859 (Simulation time: 0 hr 20 min 56 sec) 
Heartbeat CPU  0 instructions:  594000000 cycles: 1411510654 heartbeat IPC: 0.45129 cumulative IPC: 0.37871 (Simulation time: 0 hr 20 min 58 sec) 
Heartbeat CPU  0 instructions:  595000001 cycles: 1414026076 heartbeat IPC: 0.39755 cumulative IPC: 0.37875 (Simulation time: 0 hr 21 min 0 sec) 
Heartbeat CPU  0 instructions:  596000000 cycles: 1416813614 heartbeat IPC: 0.35874 cumulative IPC: 0.37870 (Simulation time: 0 hr 21 min 2 sec) 
Heartbeat CPU  0 instructions:  597000000 cycles: 1419688328 heartbeat IPC: 0.34786 cumulative IPC: 0.37864 (Simulation time: 0 hr 21 min 4 sec) 
Heartbeat CPU  0 instructions:  598000000 cycles: 1422229730 heartbeat IPC: 0.39348 cumulative IPC: 0.37867 (Simulation time: 0 hr 21 min 7 sec) 
Heartbeat CPU  0 instructions:  599000000 cycles: 1425105633 heartbeat IPC: 0.34772 cumulative IPC: 0.37860 (Simulation time: 0 hr 21 min 9 sec) 
Heartbeat CPU  0 instructions:  600000000 cycles: 1427498625 heartbeat IPC: 0.41789 cumulative IPC: 0.37867 (Simulation time: 0 hr 21 min 11 sec) 
Finished CPU 0 instructions: 500000000 cycles: 1320414106 cumulative IPC: 0.37867 (Simulation time: 0 hr 21 min 11 sec) 

ChampSim completed all CPUs

[ROI Statistics]
Core_0_instructions 500000000
Core_0_cycles 1320414106
Core_0_IPC 0.37867

Core_0_branch_prediction_accuracy 85.18932
Core_0_branch_MPKI 24.43069
Core_0_average_ROB_occupancy_at_mispredict 38.24692

Core_0_L1D_total_access 155587766
Core_0_L1D_total_hit 153272136
Core_0_L1D_total_miss 2315630
Core_0_L1D_loads 89715666
Core_0_L1D_load_hit 88886128
Core_0_L1D_load_miss 829538
Core_0_L1D_RFOs 65872100
Core_0_L1D_RFO_hit 64386008
Core_0_L1D_RFO_miss 1486092
Core_0_L1D_prefetches 0
Core_0_L1D_prefetch_hit 0
Core_0_L1D_prefetch_miss 0
Core_0_L1D_writebacks 0
Core_0_L1D_writeback_hit 0
Core_0_L1D_writeback_miss 0
Core_0_L1D_prefetch_requested 0
Core_0_L1D_prefetch_dropped 0
Core_0_L1D_prefetch_issued 0
Core_0_L1D_prefetch_filled 0
Core_0_L1D_prefetch_useful 0
Core_0_L1D_prefetch_useless 0
Core_0_L1D_prefetch_late 0
Core_0_L1D_average_miss_latency 295.27374

Core_0_L1D_rq_access 125889371
Core_0_L1D_rq_forward 0
Core_0_L1D_rq_merged 36083267
Core_0_L1D_rq_to_cache 89805468
Core_0_L1D_rq_full 0

Core_0_L1D_wq_access 70505122
Core_0_L1D_wq_forward 636
Core_0_L1D_wq_merged 423395
Core_0_L1D_wq_to_cache 70081727
Core_0_L1D_wq_full 30607590

Core_0_L1D_pq_access 0
Core_0_L1D_pq_forward 0
Core_0_L1D_pq_merged 0
Core_0_L1D_pq_to_cache 0
Core_0_L1D_pq_full 0

Core_0_L1D_acc_epochs 1391788
Core_0_L1D_acc_level_0 1391788
Core_0_L1D_acc_level_1 0
Core_0_L1D_acc_level_2 0
Core_0_L1D_acc_level_3 0
Core_0_L1D_acc_level_4 0
Core_0_L1D_acc_level_5 0
Core_0_L1D_acc_level_6 0
Core_0_L1D_acc_level_7 0
Core_0_L1D_acc_level_8 0
Core_0_L1D_acc_level_9 0

Core_0_L1I_total_access 100059907
Core_0_L1I_total_hit 98114961
Core_0_L1I_total_miss 1944946
Core_0_L1I_loads 100059907
Core_0_L1I_load_hit 98114961
Core_0_L1I_load_miss 1944946
Core_0_L1I_RFOs 0
Core_0_L1I_RFO_hit 0
Core_0_L1I_RFO_miss 0
Core_0_L1I_prefetches 0
Core_0_L1I_prefetch_hit 0
Core_0_L1I_prefetch_miss 0
Core_0_L1I_writebacks 0
Core_0_L1I_writeback_hit 0
Core_0_L1I_writeback_miss 0
Core_0_L1I_prefetch_requested 0
Core_0_L1I_prefetch_dropped 0
Core_0_L1I_prefetch_issued 0
Core_0_L1I_prefetch_filled 0
Core_0_L1I_prefetch_useful 0
Core_0_L1I_prefetch_useless 0
Core_0_L1I_prefetch_late 0
Core_0_L1I_average_miss_latency 12.27953

Core_0_L1I_rq_access 499999934
Core_0_L1I_rq_forward 0
Core_0_L1I_rq_merged 399227276
Core_0_L1I_rq_to_cache 100772658
Core_0_L1I_rq_full 0

Core_0_L1I_wq_access 0
Core_0_L1I_wq_forward 0
Core_0_L1I_wq_merged 0
Core_0_L1I_wq_to_cache 0
Core_0_L1I_wq_full 0

Core_0_L1I_pq_access 0
Core_0_L1I_pq_forward 0
Core_0_L1I_pq_merged 0
Core_0_L1I_pq_to_cache 0
Core_0_L1I_pq_full 0

Core_0_L1I_acc_epochs 1391788
Core_0_L1I_acc_level_0 1391788
Core_0_L1I_acc_level_1 0
Core_0_L1I_acc_level_2 0
Core_0_L1I_acc_level_3 0
Core_0_L1I_acc_level_4 0
Core_0_L1I_acc_level_5 0
Core_0_L1I_acc_level_6 0
Core_0_L1I_acc_level_7 0
Core_0_L1I_acc_level_8 0
Core_0_L1I_acc_level_9 0

Core_0_L2C_total_access 6576622
Core_0_L2C_total_hit 5199267
Core_0_L2C_total_miss 1377355
Core_0_L2C_loads 2774461
Core_0_L2C_load_hit 2540856
Core_0_L2C_load_miss 233605
Core_0_L2C_RFOs 1486048
Core_0_L2C_RFO_hit 602717
Core_0_L2C_RFO_miss 883331
Core_0_L2C_prefetches 561933
Core_0_L2C_prefetch_hit 304017
Core_0_L2C_prefetch_miss 257916
Core_0_L2C_writebacks 1754180
Core_0_L2C_writeback_hit 1751677
Core_0_L2C_writeback_miss 2503
Core_0_L2C_prefetch_requested 1393358
Core_0_L2C_prefetch_dropped 0
Core_0_L2C_prefetch_issued 1393358
Core_0_L2C_prefetch_filled 289377
Core_0_L2C_prefetch_useful 243529
Core_0_L2C_prefetch_useless 45601
Core_0_L2C_prefetch_late 4837
Core_0_L2C_average_miss_latency 490.73838

Core_0_L2C_rq_access 4260576
Core_0_L2C_rq_forward 0
Core_0_L2C_rq_merged 0
Core_0_L2C_rq_to_cache 4260509
Core_0_L2C_rq_full 0

Core_0_L2C_wq_access 1754180
Core_0_L2C_wq_forward 67
Core_0_L2C_wq_merged 0
Core_0_L2C_wq_to_cache 1754180
Core_0_L2C_wq_full 0

Core_0_L2C_pq_access 1393358
Core_0_L2C_pq_forward 0
Core_0_L2C_pq_merged 0
Core_0_L2C_pq_to_cache 1393358
Core_0_L2C_pq_full 0

Core_0_L2C_acc_epochs 1391788
Core_0_L2C_acc_level_0 1350394
Core_0_L2C_acc_level_1 13165
Core_0_L2C_acc_level_2 9117
Core_0_L2C_acc_level_3 3014
Core_0_L2C_acc_level_4 1570
Core_0_L2C_acc_level_5 6306
Core_0_L2C_acc_level_6 1144
Core_0_L2C_acc_level_7 1104
Core_0_L2C_acc_level_8 704
Core_0_L2C_acc_level_9 5270

Core_0_LLC_total_access 3083457
Core_0_LLC_total_hit 1132704
Core_0_LLC_total_miss 1950753
Core_0_LLC_loads 228877
Core_0_LLC_load_hit 150108
Core_0_LLC_load_miss 78769
Core_0_LLC_RFOs 883321
Core_0_LLC_RFO_hit 132383
Core_0_LLC_RFO_miss 750938
Core_0_LLC_prefetches 937678
Core_0_LLC_prefetch_hit 496088
Core_0_LLC_prefetch_miss 441590
Core_0_LLC_writebacks 1033581
Core_0_LLC_writeback_hit 354125
Core_0_LLC_writeback_miss 679456
Core_0_LLC_prefetch_requested 0
Core_0_LLC_prefetch_dropped 0
Core_0_LLC_prefetch_issued 0
Core_0_LLC_prefetch_filled 500039
Core_0_LLC_prefetch_useful 48094
Core_0_LLC_prefetch_useless 437574
Core_0_LLC_prefetch_late 90
Core_0_LLC_average_miss_latency 374.41610

Core_0_LLC_rq_access 1112202
Core_0_LLC_rq_forward 0
Core_0_LLC_rq_merged 0
Core_0_LLC_rq_to_cache 1112198
Core_0_LLC_rq_full 0

Core_0_LLC_wq_access 1033581
Core_0_LLC_wq_forward 4
Core_0_LLC_wq_merged 0
Core_0_LLC_wq_to_cache 1033581
Core_0_LLC_wq_full 0

Core_0_LLC_pq_access 1028358
Core_0_LLC_pq_forward 0
Core_0_LLC_pq_merged 0
Core_0_LLC_pq_to_cache 1028358
Core_0_LLC_pq_full 0

Core_0_LLC_acc_epochs 1394042
Core_0_LLC_acc_level_0 1361864
Core_0_LLC_acc_level_1 18757
Core_0_LLC_acc_level_2 8157
Core_0_LLC_acc_level_3 686
Core_0_LLC_acc_level_4 19
Core_0_LLC_acc_level_5 3940
Core_0_LLC_acc_level_6 39
Core_0_LLC_acc_level_7 61
Core_0_LLC_acc_level_8 8
Core_0_LLC_acc_level_9 511

Core_0_major_page_fault 0
Core_0_minor_page_fault 6639

[Bingo] PHT Access: 195872
[Bingo] PHT Hit PC+Addr: 64350
[Bingo] PHT Hit PC+Offs: 110950
[Bingo] PHT Miss: 20572
[Bingo] Prefetch PC+Addr: 0
[Bingo] Prefetch PC+Offs: 0
[Bingo] Useful PC+Addr: 0
[Bingo] Useful PC+Offs: 0
[Bingo] Useless PC+Addr: 0
[Bingo] Useless PC+Offs: 0
[Bingo] L1 Prefetch per Region: 0.00000
[Bingo] L2 Prefetch per Region: 4.60588
[Bingo] L3 Prefetch per Region: 4.35005
[Bingo] No Prefetch per Region: 23.04408
[Bingo] Number of Voters Mean: 6.51030
[Bingo] Number of Voters SD: 3.89007

Channel_0_RQ_row_buffer_hit 393918
Channel_0_RQ_row_buffer_miss 877375
Channel_0_WQ_row_buffer_hit 201747
Channel_0_WQ_row_buffer_miss 671293
Channel_0_WQ_full 33324
Channel_0_dbus_congested 1793724

avg_congested_cycle 11

DRAM_bw_pochs 5576167
DRAM_bw_level_0 5379894
DRAM_bw_level_1 126772
DRAM_bw_level_2 51745
DRAM_bw_level_3 17756
