*************************************************
   ChampSim Multicore Out-of-Order Simulator
   Last compiled: Dec 11 2024 17:59:53
*************************************************
parsing config file: /home/functionmain/桌面/Pythia/config/mlop.ini

trace_0 /home/functionmain/桌面/Pythia/traces/445.gobmk-30B.champsimtrace.xz
adding L2C_PREFETCHER: MLOP
Initialize SHIP state
warmup_instructions 100000000
simulation_instructions 500000000
champsim_seed 165
measure_ipc 0
measure_ipc_epoch 1000
measure_dram_bw 1
measure_dram_bw_epoch 256
measure_cache_acc 1
measure_cache_acc_epoch 1024
l1d_perfect 0
l2c_perfect 0
llc_perfect 0
l1d_semi_perfect 0
l2c_semi_perfect 0
llc_semi_perfect 0
semi_perfect_cache_page_buffer_size 64

num_cpus 1
cpu_freq 4000
dram_io_freq 150
page_size 4096
block_size 64
max_read_per_cycle 8
max_fill_per_cycle 1
dram_channels 1
log2_dram_channels 0
dram_ranks 1
dram_banks 8
dram_rows 65536
dram_columns 128
dram_row_size 8
dram_size 4096
dram_pages 1048576

fetch_width 6
decode_width 6
exec_width 4
lq_width 2
sq_width 2
retire_width 4
scheduler_size 128
branch_mispredict_penalty 20
rob_size 256
lq_size 72
sq_size 56
num_instr_destinations_sparc 4
num_instr_destinations 2
num_instr_sources 4

itlb_set 16
itlb_way 8
itlb_rq_size 16
itlb_wq_size 16
itlb_pq_size 0
itlb_mshr_size 8
itlb_latency 1

dtlb_set 16
dtlb_way 4
dtlb_rq_size 16
dtlb_wq_size 16
dtlb_pq_size 0
dtlb_mshr_size 8
dtlb_latency 1

stlb_set 128
stlb_way 12
stlb_rq_size 32
stlb_wq_size 32
stlb_pq_size 0
stlb_mshr_size 16
stlb_latency 8

l1i_size 32
l1i_set 64
l1i_way 8
l1i_rq_size 64
l1i_wq_size 64
l1i_pq_size 8
l1i_mshr_size 8
l1i_latency 1

l1d_size 32
l1d_set 64
l1d_way 8
l1d_rq_size 64
l1d_wq_size 64
l1d_pq_size 8
l1d_mshr_size 16
l1d_latency 4

l2c_size 256
l2c_set 512
l2c_way 8
l2c_rq_size 32
l2c_wq_size 32
l2c_pq_size 32
l2c_mshr_size 32
l2c_latency 10

llc_size 2048
llc_set 2048
llc_way 16
llc_rq_size 32
llc_wq_size 32
llc_pq_size 32
llc_mshr_size 64
llc_latency 20

dram_channel_width 8
dram_wq_size 64
dram_rq_size 64
tRP 15
tRCD 15
tCAS 12.5
dram_dbus_turn_around_time 30
dram_write_high_wm 56
dram_write_low_wm 48
min_dram_writes_per_switch 16
dram_mtps 150
dram_dbus_return_time 213

mlop_pref_degree 16
mlop_num_updates 500
mlop_l1d_thresh 2
mlop_l2c_thresh 0.75
mlop_llc_thresh 0.3
mlop_debug_level 0
mlop_blocks_in_cache 4096
mlop_blocks_in_zone 64
mlop_amt_size 2048
mlop_PF_DEGREE 16
mlop_NUM_UPDATES 500
mlop_L1D_THRESH 1000
mlop_L2C_THRESH 375
mlop_LLC_THRESH 150
mlop_ORIGIN 63
mlop_MAX_OFFSET 63
mlop_MIN_OFFSET -63
mlop_ORIGIN 63
mlop_NUM_OFFSETS 127


Heartbeat CPU  0 instructions:    1000000 cycles:     861996 heartbeat IPC: 1.16010 cumulative IPC: 1.16010 (Simulation time: 0 hr 0 min 1 sec) 
Heartbeat CPU  0 instructions:    2000000 cycles:    1864456 heartbeat IPC: 0.99755 cumulative IPC: 1.07270 (Simulation time: 0 hr 0 min 3 sec) 
Heartbeat CPU  0 instructions:    3000001 cycles:    2990060 heartbeat IPC: 0.88841 cumulative IPC: 1.00332 (Simulation time: 0 hr 0 min 4 sec) 
Heartbeat CPU  0 instructions:    4000000 cycles:    4090835 heartbeat IPC: 0.90845 cumulative IPC: 0.97780 (Simulation time: 0 hr 0 min 5 sec) 
Heartbeat CPU  0 instructions:    5000001 cycles:    5173126 heartbeat IPC: 0.92397 cumulative IPC: 0.96653 (Simulation time: 0 hr 0 min 7 sec) 
Heartbeat CPU  0 instructions:    6000000 cycles:    6295937 heartbeat IPC: 0.89062 cumulative IPC: 0.95300 (Simulation time: 0 hr 0 min 8 sec) 
Heartbeat CPU  0 instructions:    7000001 cycles:    7363127 heartbeat IPC: 0.93704 cumulative IPC: 0.95068 (Simulation time: 0 hr 0 min 10 sec) 
Heartbeat CPU  0 instructions:    8000000 cycles:    8565891 heartbeat IPC: 0.83142 cumulative IPC: 0.93394 (Simulation time: 0 hr 0 min 11 sec) 
Heartbeat CPU  0 instructions:    9000000 cycles:    9685312 heartbeat IPC: 0.89332 cumulative IPC: 0.92924 (Simulation time: 0 hr 0 min 12 sec) 
Heartbeat CPU  0 instructions:   10000003 cycles:   10815081 heartbeat IPC: 0.88514 cumulative IPC: 0.92464 (Simulation time: 0 hr 0 min 14 sec) 
Heartbeat CPU  0 instructions:   11000000 cycles:   11872823 heartbeat IPC: 0.94541 cumulative IPC: 0.92649 (Simulation time: 0 hr 0 min 15 sec) 
Heartbeat CPU  0 instructions:   12000000 cycles:   13017026 heartbeat IPC: 0.87397 cumulative IPC: 0.92187 (Simulation time: 0 hr 0 min 17 sec) 
Heartbeat CPU  0 instructions:   13000001 cycles:   14156478 heartbeat IPC: 0.87762 cumulative IPC: 0.91831 (Simulation time: 0 hr 0 min 18 sec) 
Heartbeat CPU  0 instructions:   14000000 cycles:   15083181 heartbeat IPC: 1.07909 cumulative IPC: 0.92819 (Simulation time: 0 hr 0 min 19 sec) 
Heartbeat CPU  0 instructions:   15000001 cycles:   16047176 heartbeat IPC: 1.03735 cumulative IPC: 0.93474 (Simulation time: 0 hr 0 min 21 sec) 
Heartbeat CPU  0 instructions:   16000000 cycles:   17176191 heartbeat IPC: 0.88573 cumulative IPC: 0.93152 (Simulation time: 0 hr 0 min 22 sec) 
Heartbeat CPU  0 instructions:   17000000 cycles:   18271722 heartbeat IPC: 0.91280 cumulative IPC: 0.93040 (Simulation time: 0 hr 0 min 23 sec) 
Heartbeat CPU  0 instructions:   18000003 cycles:   19388166 heartbeat IPC: 0.89570 cumulative IPC: 0.92840 (Simulation time: 0 hr 0 min 25 sec) 
Heartbeat CPU  0 instructions:   19000001 cycles:   20469336 heartbeat IPC: 0.92492 cumulative IPC: 0.92822 (Simulation time: 0 hr 0 min 26 sec) 
Heartbeat CPU  0 instructions:   20000000 cycles:   21561150 heartbeat IPC: 0.91591 cumulative IPC: 0.92759 (Simulation time: 0 hr 0 min 27 sec) 
Heartbeat CPU  0 instructions:   21000000 cycles:   22753600 heartbeat IPC: 0.83861 cumulative IPC: 0.92293 (Simulation time: 0 hr 0 min 29 sec) 
Heartbeat CPU  0 instructions:   22000003 cycles:   23880968 heartbeat IPC: 0.88702 cumulative IPC: 0.92124 (Simulation time: 0 hr 0 min 30 sec) 
Heartbeat CPU  0 instructions:   23000001 cycles:   24931075 heartbeat IPC: 0.95228 cumulative IPC: 0.92254 (Simulation time: 0 hr 0 min 32 sec) 
Heartbeat CPU  0 instructions:   24000000 cycles:   26047895 heartbeat IPC: 0.89540 cumulative IPC: 0.92138 (Simulation time: 0 hr 0 min 33 sec) 
Heartbeat CPU  0 instructions:   25000000 cycles:   26927137 heartbeat IPC: 1.13734 cumulative IPC: 0.92843 (Simulation time: 0 hr 0 min 34 sec) 
Heartbeat CPU  0 instructions:   26000000 cycles:   27897366 heartbeat IPC: 1.03068 cumulative IPC: 0.93199 (Simulation time: 0 hr 0 min 35 sec) 
Heartbeat CPU  0 instructions:   27000002 cycles:   29000037 heartbeat IPC: 0.90689 cumulative IPC: 0.93103 (Simulation time: 0 hr 0 min 37 sec) 
Heartbeat CPU  0 instructions:   28000000 cycles:   30120743 heartbeat IPC: 0.89229 cumulative IPC: 0.92959 (Simulation time: 0 hr 0 min 38 sec) 
Heartbeat CPU  0 instructions:   29000003 cycles:   31186778 heartbeat IPC: 0.93806 cumulative IPC: 0.92988 (Simulation time: 0 hr 0 min 40 sec) 
Heartbeat CPU  0 instructions:   30000002 cycles:   32279290 heartbeat IPC: 0.91532 cumulative IPC: 0.92939 (Simulation time: 0 hr 0 min 41 sec) 
Heartbeat CPU  0 instructions:   31000003 cycles:   33381677 heartbeat IPC: 0.90712 cumulative IPC: 0.92865 (Simulation time: 0 hr 0 min 42 sec) 
Heartbeat CPU  0 instructions:   32000000 cycles:   34481358 heartbeat IPC: 0.90935 cumulative IPC: 0.92804 (Simulation time: 0 hr 0 min 44 sec) 
Heartbeat CPU  0 instructions:   33000001 cycles:   35468609 heartbeat IPC: 1.01291 cumulative IPC: 0.93040 (Simulation time: 0 hr 0 min 45 sec) 
Heartbeat CPU  0 instructions:   34000001 cycles:   36606510 heartbeat IPC: 0.87881 cumulative IPC: 0.92880 (Simulation time: 0 hr 0 min 47 sec) 
Heartbeat CPU  0 instructions:   35000003 cycles:   37678854 heartbeat IPC: 0.93254 cumulative IPC: 0.92890 (Simulation time: 0 hr 0 min 48 sec) 
Heartbeat CPU  0 instructions:   36000000 cycles:   38870456 heartbeat IPC: 0.83920 cumulative IPC: 0.92615 (Simulation time: 0 hr 0 min 49 sec) 
Heartbeat CPU  0 instructions:   37000002 cycles:   39986474 heartbeat IPC: 0.89604 cumulative IPC: 0.92531 (Simulation time: 0 hr 0 min 51 sec) 
Heartbeat CPU  0 instructions:   38000000 cycles:   41036463 heartbeat IPC: 0.95239 cumulative IPC: 0.92601 (Simulation time: 0 hr 0 min 52 sec) 
Heartbeat CPU  0 instructions:   39000001 cycles:   41930006 heartbeat IPC: 1.11914 cumulative IPC: 0.93012 (Simulation time: 0 hr 0 min 53 sec) 
Heartbeat CPU  0 instructions:   40000000 cycles:   42887896 heartbeat IPC: 1.04396 cumulative IPC: 0.93266 (Simulation time: 0 hr 0 min 55 sec) 
Heartbeat CPU  0 instructions:   41000000 cycles:   43989247 heartbeat IPC: 0.90798 cumulative IPC: 0.93205 (Simulation time: 0 hr 0 min 56 sec) 
Heartbeat CPU  0 instructions:   42000000 cycles:   45114307 heartbeat IPC: 0.88884 cumulative IPC: 0.93097 (Simulation time: 0 hr 0 min 58 sec) 
Heartbeat CPU  0 instructions:   43000003 cycles:   46181918 heartbeat IPC: 0.93667 cumulative IPC: 0.93110 (Simulation time: 0 hr 0 min 59 sec) 
Heartbeat CPU  0 instructions:   44000000 cycles:   47301854 heartbeat IPC: 0.89291 cumulative IPC: 0.93020 (Simulation time: 0 hr 1 min 0 sec) 
Heartbeat CPU  0 instructions:   45000001 cycles:   48335599 heartbeat IPC: 0.96736 cumulative IPC: 0.93099 (Simulation time: 0 hr 1 min 2 sec) 
Heartbeat CPU  0 instructions:   46000000 cycles:   49422036 heartbeat IPC: 0.92044 cumulative IPC: 0.93076 (Simulation time: 0 hr 1 min 3 sec) 
Heartbeat CPU  0 instructions:   47000003 cycles:   50530342 heartbeat IPC: 0.90228 cumulative IPC: 0.93013 (Simulation time: 0 hr 1 min 5 sec) 
Heartbeat CPU  0 instructions:   48000000 cycles:   51499570 heartbeat IPC: 1.03175 cumulative IPC: 0.93205 (Simulation time: 0 hr 1 min 6 sec) 
Heartbeat CPU  0 instructions:   49000000 cycles:   52614124 heartbeat IPC: 0.89722 cumulative IPC: 0.93131 (Simulation time: 0 hr 1 min 7 sec) 
Heartbeat CPU  0 instructions:   50000000 cycles:   53698187 heartbeat IPC: 0.92246 cumulative IPC: 0.93113 (Simulation time: 0 hr 1 min 9 sec) 
Heartbeat CPU  0 instructions:   51000001 cycles:   54765556 heartbeat IPC: 0.93688 cumulative IPC: 0.93124 (Simulation time: 0 hr 1 min 10 sec) 
Heartbeat CPU  0 instructions:   52000000 cycles:   55895261 heartbeat IPC: 0.88519 cumulative IPC: 0.93031 (Simulation time: 0 hr 1 min 12 sec) 
Heartbeat CPU  0 instructions:   53000000 cycles:   57001837 heartbeat IPC: 0.90369 cumulative IPC: 0.92979 (Simulation time: 0 hr 1 min 13 sec) 
Heartbeat CPU  0 instructions:   54000001 cycles:   58198498 heartbeat IPC: 0.83566 cumulative IPC: 0.92786 (Simulation time: 0 hr 1 min 14 sec) 
Heartbeat CPU  0 instructions:   55000002 cycles:   59318191 heartbeat IPC: 0.89310 cumulative IPC: 0.92720 (Simulation time: 0 hr 1 min 16 sec) 
Heartbeat CPU  0 instructions:   56000000 cycles:   60384031 heartbeat IPC: 0.93823 cumulative IPC: 0.92740 (Simulation time: 0 hr 1 min 17 sec) 
Heartbeat CPU  0 instructions:   57000000 cycles:   61472092 heartbeat IPC: 0.91907 cumulative IPC: 0.92725 (Simulation time: 0 hr 1 min 18 sec) 
Heartbeat CPU  0 instructions:   58000001 cycles:   62561381 heartbeat IPC: 0.91803 cumulative IPC: 0.92709 (Simulation time: 0 hr 1 min 20 sec) 
Heartbeat CPU  0 instructions:   59000000 cycles:   63436120 heartbeat IPC: 1.14320 cumulative IPC: 0.93007 (Simulation time: 0 hr 1 min 21 sec) 
Heartbeat CPU  0 instructions:   60000000 cycles:   64555125 heartbeat IPC: 0.89365 cumulative IPC: 0.92944 (Simulation time: 0 hr 1 min 22 sec) 
Heartbeat CPU  0 instructions:   61000000 cycles:   65651381 heartbeat IPC: 0.91220 cumulative IPC: 0.92915 (Simulation time: 0 hr 1 min 24 sec) 
Heartbeat CPU  0 instructions:   62000000 cycles:   66729692 heartbeat IPC: 0.92738 cumulative IPC: 0.92912 (Simulation time: 0 hr 1 min 25 sec) 
Heartbeat CPU  0 instructions:   63000001 cycles:   67747079 heartbeat IPC: 0.98291 cumulative IPC: 0.92993 (Simulation time: 0 hr 1 min 27 sec) 
Heartbeat CPU  0 instructions:   64000000 cycles:   68869586 heartbeat IPC: 0.89086 cumulative IPC: 0.92929 (Simulation time: 0 hr 1 min 28 sec) 
Heartbeat CPU  0 instructions:   65000000 cycles:   69945081 heartbeat IPC: 0.92980 cumulative IPC: 0.92930 (Simulation time: 0 hr 1 min 29 sec) 
Heartbeat CPU  0 instructions:   66000000 cycles:   71001998 heartbeat IPC: 0.94615 cumulative IPC: 0.92955 (Simulation time: 0 hr 1 min 31 sec) 
Heartbeat CPU  0 instructions:   67000000 cycles:   72115558 heartbeat IPC: 0.89802 cumulative IPC: 0.92906 (Simulation time: 0 hr 1 min 32 sec) 
Heartbeat CPU  0 instructions:   68000000 cycles:   73203963 heartbeat IPC: 0.91878 cumulative IPC: 0.92891 (Simulation time: 0 hr 1 min 34 sec) 
Heartbeat CPU  0 instructions:   69000001 cycles:   74312642 heartbeat IPC: 0.90198 cumulative IPC: 0.92851 (Simulation time: 0 hr 1 min 35 sec) 
Heartbeat CPU  0 instructions:   70000000 cycles:   75285576 heartbeat IPC: 1.02782 cumulative IPC: 0.92979 (Simulation time: 0 hr 1 min 36 sec) 
Heartbeat CPU  0 instructions:   71000000 cycles:   76200620 heartbeat IPC: 1.09284 cumulative IPC: 0.93175 (Simulation time: 0 hr 1 min 38 sec) 
Heartbeat CPU  0 instructions:   72000000 cycles:   77300168 heartbeat IPC: 0.90946 cumulative IPC: 0.93143 (Simulation time: 0 hr 1 min 39 sec) 
Heartbeat CPU  0 instructions:   73000001 cycles:   78362283 heartbeat IPC: 0.94152 cumulative IPC: 0.93157 (Simulation time: 0 hr 1 min 41 sec) 
Heartbeat CPU  0 instructions:   74000000 cycles:   79429188 heartbeat IPC: 0.93729 cumulative IPC: 0.93165 (Simulation time: 0 hr 1 min 42 sec) 
Heartbeat CPU  0 instructions:   75000001 cycles:   80371726 heartbeat IPC: 1.06097 cumulative IPC: 0.93316 (Simulation time: 0 hr 1 min 44 sec) 
Heartbeat CPU  0 instructions:   76000000 cycles:   81359755 heartbeat IPC: 1.01212 cumulative IPC: 0.93412 (Simulation time: 0 hr 1 min 45 sec) 
Heartbeat CPU  0 instructions:   77000002 cycles:   82401438 heartbeat IPC: 0.95999 cumulative IPC: 0.93445 (Simulation time: 0 hr 1 min 46 sec) 
Heartbeat CPU  0 instructions:   78000000 cycles:   83352713 heartbeat IPC: 1.05122 cumulative IPC: 0.93578 (Simulation time: 0 hr 1 min 48 sec) 
Heartbeat CPU  0 instructions:   79000003 cycles:   84383389 heartbeat IPC: 0.97024 cumulative IPC: 0.93620 (Simulation time: 0 hr 1 min 49 sec) 
Heartbeat CPU  0 instructions:   80000000 cycles:   85449796 heartbeat IPC: 0.93773 cumulative IPC: 0.93622 (Simulation time: 0 hr 1 min 51 sec) 
Heartbeat CPU  0 instructions:   81000003 cycles:   86538270 heartbeat IPC: 0.91872 cumulative IPC: 0.93600 (Simulation time: 0 hr 1 min 52 sec) 
Heartbeat CPU  0 instructions:   82000000 cycles:   87613259 heartbeat IPC: 0.93024 cumulative IPC: 0.93593 (Simulation time: 0 hr 1 min 54 sec) 
Heartbeat CPU  0 instructions:   83000001 cycles:   88712551 heartbeat IPC: 0.90968 cumulative IPC: 0.93561 (Simulation time: 0 hr 1 min 55 sec) 
Heartbeat CPU  0 instructions:   84000000 cycles:   89751620 heartbeat IPC: 0.96240 cumulative IPC: 0.93592 (Simulation time: 0 hr 1 min 56 sec) 
Heartbeat CPU  0 instructions:   85000000 cycles:   90751325 heartbeat IPC: 1.00030 cumulative IPC: 0.93663 (Simulation time: 0 hr 1 min 58 sec) 
Heartbeat CPU  0 instructions:   86000000 cycles:   91837456 heartbeat IPC: 0.92070 cumulative IPC: 0.93644 (Simulation time: 0 hr 1 min 59 sec) 
Heartbeat CPU  0 instructions:   87000002 cycles:   92924273 heartbeat IPC: 0.92012 cumulative IPC: 0.93625 (Simulation time: 0 hr 2 min 1 sec) 
Heartbeat CPU  0 instructions:   88000000 cycles:   93994466 heartbeat IPC: 0.93441 cumulative IPC: 0.93623 (Simulation time: 0 hr 2 min 2 sec) 
Heartbeat CPU  0 instructions:   89000002 cycles:   95093832 heartbeat IPC: 0.90962 cumulative IPC: 0.93592 (Simulation time: 0 hr 2 min 4 sec) 
Heartbeat CPU  0 instructions:   90000002 cycles:   96181232 heartbeat IPC: 0.91962 cumulative IPC: 0.93573 (Simulation time: 0 hr 2 min 5 sec) 
Heartbeat CPU  0 instructions:   91000001 cycles:   97247718 heartbeat IPC: 0.93766 cumulative IPC: 0.93575 (Simulation time: 0 hr 2 min 6 sec) 
Heartbeat CPU  0 instructions:   92000000 cycles:   98366506 heartbeat IPC: 0.89382 cumulative IPC: 0.93528 (Simulation time: 0 hr 2 min 8 sec) 
Heartbeat CPU  0 instructions:   93000000 cycles:   99405870 heartbeat IPC: 0.96213 cumulative IPC: 0.93556 (Simulation time: 0 hr 2 min 9 sec) 
Heartbeat CPU  0 instructions:   94000001 cycles:  100524125 heartbeat IPC: 0.89425 cumulative IPC: 0.93510 (Simulation time: 0 hr 2 min 10 sec) 
Heartbeat CPU  0 instructions:   95000001 cycles:  101616167 heartbeat IPC: 0.91572 cumulative IPC: 0.93489 (Simulation time: 0 hr 2 min 12 sec) 
Heartbeat CPU  0 instructions:   96000000 cycles:  102705932 heartbeat IPC: 0.91763 cumulative IPC: 0.93471 (Simulation time: 0 hr 2 min 13 sec) 
Heartbeat CPU  0 instructions:   97000001 cycles:  103834227 heartbeat IPC: 0.88629 cumulative IPC: 0.93418 (Simulation time: 0 hr 2 min 15 sec) 
Heartbeat CPU  0 instructions:   98000000 cycles:  104932969 heartbeat IPC: 0.91013 cumulative IPC: 0.93393 (Simulation time: 0 hr 2 min 16 sec) 
Heartbeat CPU  0 instructions:   99000003 cycles:  106004565 heartbeat IPC: 0.93319 cumulative IPC: 0.93392 (Simulation time: 0 hr 2 min 17 sec) 
Heartbeat CPU  0 instructions:  100000000 cycles:  107090129 heartbeat IPC: 0.92118 cumulative IPC: 0.93379 (Simulation time: 0 hr 2 min 19 sec) 

Warmup complete CPU  0 instructions:  100000001 cycles:  107090131 (Simulation time: 0 hr 2 min 19 sec) 

Heartbeat CPU  0 instructions:  101000000 cycles:  109776735 heartbeat IPC: 0.37222 cumulative IPC: 0.37222 (Simulation time: 0 hr 2 min 21 sec) 
Heartbeat CPU  0 instructions:  102000000 cycles:  112441659 heartbeat IPC: 0.37525 cumulative IPC: 0.37372 (Simulation time: 0 hr 2 min 23 sec) 
Heartbeat CPU  0 instructions:  103000000 cycles:  115110328 heartbeat IPC: 0.37472 cumulative IPC: 0.37406 (Simulation time: 0 hr 2 min 25 sec) 
Heartbeat CPU  0 instructions:  104000000 cycles:  117692083 heartbeat IPC: 0.38733 cumulative IPC: 0.37729 (Simulation time: 0 hr 2 min 28 sec) 
Heartbeat CPU  0 instructions:  105000003 cycles:  120475836 heartbeat IPC: 0.35923 cumulative IPC: 0.37353 (Simulation time: 0 hr 2 min 30 sec) 
Heartbeat CPU  0 instructions:  106000001 cycles:  123246771 heartbeat IPC: 0.36089 cumulative IPC: 0.37136 (Simulation time: 0 hr 2 min 32 sec) 
Heartbeat CPU  0 instructions:  107000003 cycles:  125972311 heartbeat IPC: 0.36690 cumulative IPC: 0.37072 (Simulation time: 0 hr 2 min 34 sec) 
Heartbeat CPU  0 instructions:  108000000 cycles:  128826987 heartbeat IPC: 0.35030 cumulative IPC: 0.36804 (Simulation time: 0 hr 2 min 37 sec) 
Heartbeat CPU  0 instructions:  109000000 cycles:  131643026 heartbeat IPC: 0.35511 cumulative IPC: 0.36656 (Simulation time: 0 hr 2 min 39 sec) 
Heartbeat CPU  0 instructions:  110000002 cycles:  134333165 heartbeat IPC: 0.37173 cumulative IPC: 0.36707 (Simulation time: 0 hr 2 min 41 sec) 
Heartbeat CPU  0 instructions:  111000002 cycles:  136926810 heartbeat IPC: 0.38556 cumulative IPC: 0.36867 (Simulation time: 0 hr 2 min 43 sec) 
Heartbeat CPU  0 instructions:  112000000 cycles:  139733496 heartbeat IPC: 0.35629 cumulative IPC: 0.36761 (Simulation time: 0 hr 2 min 46 sec) 
Heartbeat CPU  0 instructions:  113000001 cycles:  142669379 heartbeat IPC: 0.34061 cumulative IPC: 0.36538 (Simulation time: 0 hr 2 min 48 sec) 
Heartbeat CPU  0 instructions:  114000000 cycles:  145536961 heartbeat IPC: 0.34873 cumulative IPC: 0.36414 (Simulation time: 0 hr 2 min 50 sec) 
Heartbeat CPU  0 instructions:  115000000 cycles:  148276085 heartbeat IPC: 0.36508 cumulative IPC: 0.36420 (Simulation time: 0 hr 2 min 53 sec) 
Heartbeat CPU  0 instructions:  116000000 cycles:  151082631 heartbeat IPC: 0.35631 cumulative IPC: 0.36370 (Simulation time: 0 hr 2 min 55 sec) 
Heartbeat CPU  0 instructions:  117000002 cycles:  153850160 heartbeat IPC: 0.36133 cumulative IPC: 0.36356 (Simulation time: 0 hr 2 min 57 sec) 
Heartbeat CPU  0 instructions:  118000000 cycles:  156618623 heartbeat IPC: 0.36121 cumulative IPC: 0.36343 (Simulation time: 0 hr 2 min 59 sec) 
Heartbeat CPU  0 instructions:  119000000 cycles:  159400831 heartbeat IPC: 0.35943 cumulative IPC: 0.36321 (Simulation time: 0 hr 3 min 2 sec) 
Heartbeat CPU  0 instructions:  120000000 cycles:  162274280 heartbeat IPC: 0.34801 cumulative IPC: 0.36242 (Simulation time: 0 hr 3 min 4 sec) 
Heartbeat CPU  0 instructions:  121000000 cycles:  165009893 heartbeat IPC: 0.36555 cumulative IPC: 0.36257 (Simulation time: 0 hr 3 min 6 sec) 
Heartbeat CPU  0 instructions:  122000001 cycles:  167790034 heartbeat IPC: 0.35969 cumulative IPC: 0.36244 (Simulation time: 0 hr 3 min 8 sec) 
Heartbeat CPU  0 instructions:  123000001 cycles:  170498495 heartbeat IPC: 0.36921 cumulative IPC: 0.36273 (Simulation time: 0 hr 3 min 11 sec) 
Heartbeat CPU  0 instructions:  124000000 cycles:  173145286 heartbeat IPC: 0.37782 cumulative IPC: 0.36333 (Simulation time: 0 hr 3 min 13 sec) 
Heartbeat CPU  0 instructions:  125000003 cycles:  175789642 heartbeat IPC: 0.37817 cumulative IPC: 0.36390 (Simulation time: 0 hr 3 min 15 sec) 
Heartbeat CPU  0 instructions:  126000000 cycles:  178479099 heartbeat IPC: 0.37182 cumulative IPC: 0.36420 (Simulation time: 0 hr 3 min 17 sec) 
Heartbeat CPU  0 instructions:  127000001 cycles:  181384258 heartbeat IPC: 0.34422 cumulative IPC: 0.36342 (Simulation time: 0 hr 3 min 20 sec) 
Heartbeat CPU  0 instructions:  128000000 cycles:  184109471 heartbeat IPC: 0.36694 cumulative IPC: 0.36355 (Simulation time: 0 hr 3 min 22 sec) 
Heartbeat CPU  0 instructions:  129000001 cycles:  186997004 heartbeat IPC: 0.34632 cumulative IPC: 0.36292 (Simulation time: 0 hr 3 min 24 sec) 
Heartbeat CPU  0 instructions:  130000000 cycles:  189898616 heartbeat IPC: 0.34464 cumulative IPC: 0.36228 (Simulation time: 0 hr 3 min 26 sec) 
Heartbeat CPU  0 instructions:  131000000 cycles:  192668012 heartbeat IPC: 0.36109 cumulative IPC: 0.36224 (Simulation time: 0 hr 3 min 29 sec) 
Heartbeat CPU  0 instructions:  132000000 cycles:  195462395 heartbeat IPC: 0.35786 cumulative IPC: 0.36210 (Simulation time: 0 hr 3 min 31 sec) 
Heartbeat CPU  0 instructions:  133000001 cycles:  198195055 heartbeat IPC: 0.36594 cumulative IPC: 0.36222 (Simulation time: 0 hr 3 min 33 sec) 
Heartbeat CPU  0 instructions:  134000000 cycles:  200976770 heartbeat IPC: 0.35949 cumulative IPC: 0.36214 (Simulation time: 0 hr 3 min 35 sec) 
Heartbeat CPU  0 instructions:  135000000 cycles:  203790103 heartbeat IPC: 0.35545 cumulative IPC: 0.36194 (Simulation time: 0 hr 3 min 38 sec) 
Heartbeat CPU  0 instructions:  136000000 cycles:  206603309 heartbeat IPC: 0.35547 cumulative IPC: 0.36176 (Simulation time: 0 hr 3 min 40 sec) 
Heartbeat CPU  0 instructions:  137000000 cycles:  209357390 heartbeat IPC: 0.36310 cumulative IPC: 0.36180 (Simulation time: 0 hr 3 min 42 sec) 
Heartbeat CPU  0 instructions:  138000000 cycles:  212018091 heartbeat IPC: 0.37584 cumulative IPC: 0.36215 (Simulation time: 0 hr 3 min 44 sec) 
Heartbeat CPU  0 instructions:  139000002 cycles:  214981649 heartbeat IPC: 0.33743 cumulative IPC: 0.36147 (Simulation time: 0 hr 3 min 47 sec) 
Heartbeat CPU  0 instructions:  140000000 cycles:  217746429 heartbeat IPC: 0.36169 cumulative IPC: 0.36148 (Simulation time: 0 hr 3 min 49 sec) 
Heartbeat CPU  0 instructions:  141000003 cycles:  220514870 heartbeat IPC: 0.36122 cumulative IPC: 0.36147 (Simulation time: 0 hr 3 min 51 sec) 
Heartbeat CPU  0 instructions:  142000000 cycles:  223212784 heartbeat IPC: 0.37066 cumulative IPC: 0.36169 (Simulation time: 0 hr 3 min 54 sec) 
Heartbeat CPU  0 instructions:  143000001 cycles:  225910117 heartbeat IPC: 0.37074 cumulative IPC: 0.36189 (Simulation time: 0 hr 3 min 56 sec) 
Heartbeat CPU  0 instructions:  144000000 cycles:  228392508 heartbeat IPC: 0.40284 cumulative IPC: 0.36273 (Simulation time: 0 hr 3 min 59 sec) 
Heartbeat CPU  0 instructions:  145000001 cycles:  230362079 heartbeat IPC: 0.50773 cumulative IPC: 0.36505 (Simulation time: 0 hr 4 min 2 sec) 
Heartbeat CPU  0 instructions:  146000001 cycles:  237522213 heartbeat IPC: 0.13966 cumulative IPC: 0.35267 (Simulation time: 0 hr 4 min 9 sec) 
Heartbeat CPU  0 instructions:  147000001 cycles:  245492293 heartbeat IPC: 0.12547 cumulative IPC: 0.33959 (Simulation time: 0 hr 4 min 16 sec) 
Heartbeat CPU  0 instructions:  148000000 cycles:  254153913 heartbeat IPC: 0.11545 cumulative IPC: 0.32639 (Simulation time: 0 hr 4 min 23 sec) 
Heartbeat CPU  0 instructions:  149000001 cycles:  269123833 heartbeat IPC: 0.06680 cumulative IPC: 0.30241 (Simulation time: 0 hr 4 min 35 sec) 
Heartbeat CPU  0 instructions:  150000001 cycles:  286274783 heartbeat IPC: 0.05831 cumulative IPC: 0.27904 (Simulation time: 0 hr 4 min 48 sec) 
Heartbeat CPU  0 instructions:  151000001 cycles:  304266777 heartbeat IPC: 0.05558 cumulative IPC: 0.25865 (Simulation time: 0 hr 5 min 1 sec) 
Heartbeat CPU  0 instructions:  152000000 cycles:  325337589 heartbeat IPC: 0.04746 cumulative IPC: 0.23826 (Simulation time: 0 hr 5 min 17 sec) 
Heartbeat CPU  0 instructions:  153000001 cycles:  351641195 heartbeat IPC: 0.03802 cumulative IPC: 0.21672 (Simulation time: 0 hr 5 min 35 sec) 
Heartbeat CPU  0 instructions:  154000003 cycles:  378650159 heartbeat IPC: 0.03702 cumulative IPC: 0.19885 (Simulation time: 0 hr 5 min 54 sec) 
Heartbeat CPU  0 instructions:  155000002 cycles:  390058817 heartbeat IPC: 0.08765 cumulative IPC: 0.19437 (Simulation time: 0 hr 6 min 3 sec) 
Heartbeat CPU  0 instructions:  156000000 cycles:  399024531 heartbeat IPC: 0.11154 cumulative IPC: 0.19182 (Simulation time: 0 hr 6 min 11 sec) 
Heartbeat CPU  0 instructions:  157000002 cycles:  408034729 heartbeat IPC: 0.11099 cumulative IPC: 0.18940 (Simulation time: 0 hr 6 min 18 sec) 
Heartbeat CPU  0 instructions:  158000002 cycles:  417566075 heartbeat IPC: 0.10492 cumulative IPC: 0.18681 (Simulation time: 0 hr 6 min 26 sec) 
Heartbeat CPU  0 instructions:  159000002 cycles:  435610938 heartbeat IPC: 0.05542 cumulative IPC: 0.17959 (Simulation time: 0 hr 6 min 40 sec) 
Heartbeat CPU  0 instructions:  160000000 cycles:  453544948 heartbeat IPC: 0.05576 cumulative IPC: 0.17318 (Simulation time: 0 hr 6 min 53 sec) 
Heartbeat CPU  0 instructions:  161000002 cycles:  471399275 heartbeat IPC: 0.05601 cumulative IPC: 0.16744 (Simulation time: 0 hr 7 min 6 sec) 
Heartbeat CPU  0 instructions:  162000000 cycles:  495862435 heartbeat IPC: 0.04088 cumulative IPC: 0.15948 (Simulation time: 0 hr 7 min 24 sec) 
Heartbeat CPU  0 instructions:  163000002 cycles:  522730423 heartbeat IPC: 0.03722 cumulative IPC: 0.15157 (Simulation time: 0 hr 7 min 43 sec) 
Heartbeat CPU  0 instructions:  164000000 cycles:  543541679 heartbeat IPC: 0.04805 cumulative IPC: 0.14664 (Simulation time: 0 hr 7 min 57 sec) 
Heartbeat CPU  0 instructions:  165000003 cycles:  547866369 heartbeat IPC: 0.23123 cumulative IPC: 0.14747 (Simulation time: 0 hr 8 min 1 sec) 
Heartbeat CPU  0 instructions:  166000000 cycles:  550721004 heartbeat IPC: 0.35031 cumulative IPC: 0.14877 (Simulation time: 0 hr 8 min 3 sec) 
Heartbeat CPU  0 instructions:  167000002 cycles:  553514239 heartbeat IPC: 0.35801 cumulative IPC: 0.15008 (Simulation time: 0 hr 8 min 5 sec) 
Heartbeat CPU  0 instructions:  168000000 cycles:  556301107 heartbeat IPC: 0.35883 cumulative IPC: 0.15138 (Simulation time: 0 hr 8 min 8 sec) 
Heartbeat CPU  0 instructions:  169000000 cycles:  559112364 heartbeat IPC: 0.35571 cumulative IPC: 0.15265 (Simulation time: 0 hr 8 min 10 sec) 
Heartbeat CPU  0 instructions:  170000003 cycles:  561899862 heartbeat IPC: 0.35875 cumulative IPC: 0.15391 (Simulation time: 0 hr 8 min 12 sec) 
Heartbeat CPU  0 instructions:  171000000 cycles:  564611234 heartbeat IPC: 0.36882 cumulative IPC: 0.15518 (Simulation time: 0 hr 8 min 14 sec) 
Heartbeat CPU  0 instructions:  172000000 cycles:  567393901 heartbeat IPC: 0.35937 cumulative IPC: 0.15642 (Simulation time: 0 hr 8 min 16 sec) 
Heartbeat CPU  0 instructions:  173000000 cycles:  570095965 heartbeat IPC: 0.37009 cumulative IPC: 0.15767 (Simulation time: 0 hr 8 min 19 sec) 
Heartbeat CPU  0 instructions:  174000000 cycles:  572897495 heartbeat IPC: 0.35695 cumulative IPC: 0.15886 (Simulation time: 0 hr 8 min 21 sec) 
Heartbeat CPU  0 instructions:  175000001 cycles:  575675615 heartbeat IPC: 0.35996 cumulative IPC: 0.16006 (Simulation time: 0 hr 8 min 23 sec) 
Heartbeat CPU  0 instructions:  176000000 cycles:  578462638 heartbeat IPC: 0.35881 cumulative IPC: 0.16123 (Simulation time: 0 hr 8 min 25 sec) 
Heartbeat CPU  0 instructions:  177000000 cycles:  581251552 heartbeat IPC: 0.35856 cumulative IPC: 0.16239 (Simulation time: 0 hr 8 min 28 sec) 
Heartbeat CPU  0 instructions:  178000001 cycles:  583980518 heartbeat IPC: 0.36644 cumulative IPC: 0.16356 (Simulation time: 0 hr 8 min 30 sec) 
Heartbeat CPU  0 instructions:  179000003 cycles:  586595464 heartbeat IPC: 0.38242 cumulative IPC: 0.16475 (Simulation time: 0 hr 8 min 32 sec) 
Heartbeat CPU  0 instructions:  180000000 cycles:  589343307 heartbeat IPC: 0.36392 cumulative IPC: 0.16589 (Simulation time: 0 hr 8 min 34 sec) 
Heartbeat CPU  0 instructions:  181000000 cycles:  591835177 heartbeat IPC: 0.40131 cumulative IPC: 0.16710 (Simulation time: 0 hr 8 min 36 sec) 
Heartbeat CPU  0 instructions:  182000000 cycles:  594526026 heartbeat IPC: 0.37163 cumulative IPC: 0.16823 (Simulation time: 0 hr 8 min 39 sec) 
Heartbeat CPU  0 instructions:  183000000 cycles:  597135085 heartbeat IPC: 0.38328 cumulative IPC: 0.16937 (Simulation time: 0 hr 8 min 41 sec) 
Heartbeat CPU  0 instructions:  184000000 cycles:  599618403 heartbeat IPC: 0.40269 cumulative IPC: 0.17055 (Simulation time: 0 hr 8 min 43 sec) 
Heartbeat CPU  0 instructions:  185000000 cycles:  602243184 heartbeat IPC: 0.38098 cumulative IPC: 0.17166 (Simulation time: 0 hr 8 min 45 sec) 
Heartbeat CPU  0 instructions:  186000000 cycles:  604949554 heartbeat IPC: 0.36950 cumulative IPC: 0.17274 (Simulation time: 0 hr 8 min 47 sec) 
Heartbeat CPU  0 instructions:  187000000 cycles:  607531659 heartbeat IPC: 0.38728 cumulative IPC: 0.17385 (Simulation time: 0 hr 8 min 50 sec) 
Heartbeat CPU  0 instructions:  188000000 cycles:  609953532 heartbeat IPC: 0.41290 cumulative IPC: 0.17500 (Simulation time: 0 hr 8 min 52 sec) 
Heartbeat CPU  0 instructions:  189000000 cycles:  612591780 heartbeat IPC: 0.37904 cumulative IPC: 0.17606 (Simulation time: 0 hr 8 min 54 sec) 
Heartbeat CPU  0 instructions:  190000000 cycles:  615154473 heartbeat IPC: 0.39021 cumulative IPC: 0.17714 (Simulation time: 0 hr 8 min 56 sec) 
Heartbeat CPU  0 instructions:  191000001 cycles:  617777065 heartbeat IPC: 0.38130 cumulative IPC: 0.17819 (Simulation time: 0 hr 8 min 59 sec) 
Heartbeat CPU  0 instructions:  192000000 cycles:  620373795 heartbeat IPC: 0.38510 cumulative IPC: 0.17924 (Simulation time: 0 hr 9 min 1 sec) 
Heartbeat CPU  0 instructions:  193000001 cycles:  622921788 heartbeat IPC: 0.39247 cumulative IPC: 0.18029 (Simulation time: 0 hr 9 min 3 sec) 
Heartbeat CPU  0 instructions:  194000000 cycles:  624971919 heartbeat IPC: 0.48777 cumulative IPC: 0.18151 (Simulation time: 0 hr 9 min 5 sec) 
Heartbeat CPU  0 instructions:  195000000 cycles:  627603927 heartbeat IPC: 0.37994 cumulative IPC: 0.18251 (Simulation time: 0 hr 9 min 7 sec) 
Heartbeat CPU  0 instructions:  196000000 cycles:  630225990 heartbeat IPC: 0.38138 cumulative IPC: 0.18351 (Simulation time: 0 hr 9 min 10 sec) 
Heartbeat CPU  0 instructions:  197000002 cycles:  632787222 heartbeat IPC: 0.39044 cumulative IPC: 0.18452 (Simulation time: 0 hr 9 min 12 sec) 
Heartbeat CPU  0 instructions:  198000000 cycles:  635311396 heartbeat IPC: 0.39617 cumulative IPC: 0.18553 (Simulation time: 0 hr 9 min 14 sec) 
Heartbeat CPU  0 instructions:  199000000 cycles:  637832665 heartbeat IPC: 0.39663 cumulative IPC: 0.18653 (Simulation time: 0 hr 9 min 16 sec) 
Heartbeat CPU  0 instructions:  200000000 cycles:  640406996 heartbeat IPC: 0.38845 cumulative IPC: 0.18751 (Simulation time: 0 hr 9 min 19 sec) 
Heartbeat CPU  0 instructions:  201000002 cycles:  643080960 heartbeat IPC: 0.37398 cumulative IPC: 0.18844 (Simulation time: 0 hr 9 min 21 sec) 
Heartbeat CPU  0 instructions:  202000001 cycles:  645787126 heartbeat IPC: 0.36953 cumulative IPC: 0.18935 (Simulation time: 0 hr 9 min 23 sec) 
Heartbeat CPU  0 instructions:  203000000 cycles:  648373953 heartbeat IPC: 0.38657 cumulative IPC: 0.19029 (Simulation time: 0 hr 9 min 25 sec) 
Heartbeat CPU  0 instructions:  204000000 cycles:  650904653 heartbeat IPC: 0.39515 cumulative IPC: 0.19124 (Simulation time: 0 hr 9 min 27 sec) 
Heartbeat CPU  0 instructions:  205000002 cycles:  653529916 heartbeat IPC: 0.38091 cumulative IPC: 0.19215 (Simulation time: 0 hr 9 min 30 sec) 
Heartbeat CPU  0 instructions:  206000001 cycles:  656063536 heartbeat IPC: 0.39469 cumulative IPC: 0.19309 (Simulation time: 0 hr 9 min 32 sec) 
Heartbeat CPU  0 instructions:  207000000 cycles:  658647798 heartbeat IPC: 0.38696 cumulative IPC: 0.19400 (Simulation time: 0 hr 9 min 34 sec) 
Heartbeat CPU  0 instructions:  208000000 cycles:  661463413 heartbeat IPC: 0.35516 cumulative IPC: 0.19481 (Simulation time: 0 hr 9 min 36 sec) 
Heartbeat CPU  0 instructions:  209000003 cycles:  664290686 heartbeat IPC: 0.35370 cumulative IPC: 0.19562 (Simulation time: 0 hr 9 min 39 sec) 
Heartbeat CPU  0 instructions:  210000000 cycles:  666911633 heartbeat IPC: 0.38154 cumulative IPC: 0.19649 (Simulation time: 0 hr 9 min 41 sec) 
Heartbeat CPU  0 instructions:  211000000 cycles:  669778684 heartbeat IPC: 0.34879 cumulative IPC: 0.19727 (Simulation time: 0 hr 9 min 43 sec) 
Heartbeat CPU  0 instructions:  212000000 cycles:  672479680 heartbeat IPC: 0.37023 cumulative IPC: 0.19809 (Simulation time: 0 hr 9 min 46 sec) 
Heartbeat CPU  0 instructions:  213000002 cycles:  675223976 heartbeat IPC: 0.36439 cumulative IPC: 0.19890 (Simulation time: 0 hr 9 min 48 sec) 
Heartbeat CPU  0 instructions:  214000000 cycles:  678033207 heartbeat IPC: 0.35597 cumulative IPC: 0.19967 (Simulation time: 0 hr 9 min 50 sec) 
Heartbeat CPU  0 instructions:  215000001 cycles:  680823991 heartbeat IPC: 0.35832 cumulative IPC: 0.20044 (Simulation time: 0 hr 9 min 52 sec) 
Heartbeat CPU  0 instructions:  216000000 cycles:  683594202 heartbeat IPC: 0.36098 cumulative IPC: 0.20121 (Simulation time: 0 hr 9 min 55 sec) 
Heartbeat CPU  0 instructions:  217000000 cycles:  686373988 heartbeat IPC: 0.35974 cumulative IPC: 0.20197 (Simulation time: 0 hr 9 min 57 sec) 
Heartbeat CPU  0 instructions:  218000002 cycles:  689162382 heartbeat IPC: 0.35863 cumulative IPC: 0.20272 (Simulation time: 0 hr 9 min 59 sec) 
Heartbeat CPU  0 instructions:  219000000 cycles:  691923825 heartbeat IPC: 0.36213 cumulative IPC: 0.20348 (Simulation time: 0 hr 10 min 1 sec) 
Heartbeat CPU  0 instructions:  220000000 cycles:  694670494 heartbeat IPC: 0.36408 cumulative IPC: 0.20423 (Simulation time: 0 hr 10 min 4 sec) 
Heartbeat CPU  0 instructions:  221000003 cycles:  697479504 heartbeat IPC: 0.35600 cumulative IPC: 0.20495 (Simulation time: 0 hr 10 min 6 sec) 
Heartbeat CPU  0 instructions:  222000003 cycles:  700262145 heartbeat IPC: 0.35937 cumulative IPC: 0.20567 (Simulation time: 0 hr 10 min 8 sec) 
Heartbeat CPU  0 instructions:  223000000 cycles:  702983131 heartbeat IPC: 0.36751 cumulative IPC: 0.20641 (Simulation time: 0 hr 10 min 10 sec) 
Heartbeat CPU  0 instructions:  224000000 cycles:  705693022 heartbeat IPC: 0.36902 cumulative IPC: 0.20715 (Simulation time: 0 hr 10 min 13 sec) 
Heartbeat CPU  0 instructions:  225000000 cycles:  708328820 heartbeat IPC: 0.37939 cumulative IPC: 0.20790 (Simulation time: 0 hr 10 min 15 sec) 
Heartbeat CPU  0 instructions:  226000002 cycles:  711066303 heartbeat IPC: 0.36530 cumulative IPC: 0.20862 (Simulation time: 0 hr 10 min 17 sec) 
Heartbeat CPU  0 instructions:  227000000 cycles:  713803665 heartbeat IPC: 0.36531 cumulative IPC: 0.20932 (Simulation time: 0 hr 10 min 20 sec) 
Heartbeat CPU  0 instructions:  228000000 cycles:  716500697 heartbeat IPC: 0.37078 cumulative IPC: 0.21004 (Simulation time: 0 hr 10 min 22 sec) 
Heartbeat CPU  0 instructions:  229000003 cycles:  719306499 heartbeat IPC: 0.35641 cumulative IPC: 0.21071 (Simulation time: 0 hr 10 min 24 sec) 
Heartbeat CPU  0 instructions:  230000003 cycles:  722094613 heartbeat IPC: 0.35867 cumulative IPC: 0.21138 (Simulation time: 0 hr 10 min 26 sec) 
Heartbeat CPU  0 instructions:  231000000 cycles:  724878681 heartbeat IPC: 0.35919 cumulative IPC: 0.21205 (Simulation time: 0 hr 10 min 29 sec) 
Heartbeat CPU  0 instructions:  232000000 cycles:  727595702 heartbeat IPC: 0.36805 cumulative IPC: 0.21273 (Simulation time: 0 hr 10 min 31 sec) 
Heartbeat CPU  0 instructions:  233000001 cycles:  730333474 heartbeat IPC: 0.36526 cumulative IPC: 0.21340 (Simulation time: 0 hr 10 min 33 sec) 
Heartbeat CPU  0 instructions:  234000000 cycles:  733071376 heartbeat IPC: 0.36524 cumulative IPC: 0.21406 (Simulation time: 0 hr 10 min 35 sec) 
Heartbeat CPU  0 instructions:  235000000 cycles:  735787731 heartbeat IPC: 0.36814 cumulative IPC: 0.21473 (Simulation time: 0 hr 10 min 38 sec) 
Heartbeat CPU  0 instructions:  236000000 cycles:  738262671 heartbeat IPC: 0.40405 cumulative IPC: 0.21547 (Simulation time: 0 hr 10 min 40 sec) 
Heartbeat CPU  0 instructions:  237000001 cycles:  740606820 heartbeat IPC: 0.42659 cumulative IPC: 0.21625 (Simulation time: 0 hr 10 min 42 sec) 
Heartbeat CPU  0 instructions:  238000000 cycles:  743157471 heartbeat IPC: 0.39206 cumulative IPC: 0.21696 (Simulation time: 0 hr 10 min 44 sec) 
Heartbeat CPU  0 instructions:  239000000 cycles:  745921358 heartbeat IPC: 0.36181 cumulative IPC: 0.21758 (Simulation time: 0 hr 10 min 46 sec) 
Heartbeat CPU  0 instructions:  240000000 cycles:  748595152 heartbeat IPC: 0.37400 cumulative IPC: 0.21824 (Simulation time: 0 hr 10 min 49 sec) 
Heartbeat CPU  0 instructions:  241000000 cycles:  751297411 heartbeat IPC: 0.37006 cumulative IPC: 0.21887 (Simulation time: 0 hr 10 min 51 sec) 
Heartbeat CPU  0 instructions:  242000003 cycles:  754128479 heartbeat IPC: 0.35322 cumulative IPC: 0.21946 (Simulation time: 0 hr 10 min 53 sec) 
Heartbeat CPU  0 instructions:  243000001 cycles:  756897974 heartbeat IPC: 0.36108 cumulative IPC: 0.22007 (Simulation time: 0 hr 10 min 55 sec) 
Heartbeat CPU  0 instructions:  244000000 cycles:  759511076 heartbeat IPC: 0.38269 cumulative IPC: 0.22072 (Simulation time: 0 hr 10 min 58 sec) 
Heartbeat CPU  0 instructions:  245000000 cycles:  762063975 heartbeat IPC: 0.39171 cumulative IPC: 0.22138 (Simulation time: 0 hr 11 min 0 sec) 
Heartbeat CPU  0 instructions:  246000001 cycles:  764808761 heartbeat IPC: 0.36433 cumulative IPC: 0.22198 (Simulation time: 0 hr 11 min 2 sec) 
Heartbeat CPU  0 instructions:  247000002 cycles:  767466066 heartbeat IPC: 0.37632 cumulative IPC: 0.22260 (Simulation time: 0 hr 11 min 4 sec) 
Heartbeat CPU  0 instructions:  248000000 cycles:  770054666 heartbeat IPC: 0.38631 cumulative IPC: 0.22324 (Simulation time: 0 hr 11 min 7 sec) 
Heartbeat CPU  0 instructions:  249000003 cycles:  772606683 heartbeat IPC: 0.39185 cumulative IPC: 0.22389 (Simulation time: 0 hr 11 min 9 sec) 
Heartbeat CPU  0 instructions:  250000000 cycles:  775008980 heartbeat IPC: 0.41627 cumulative IPC: 0.22458 (Simulation time: 0 hr 11 min 11 sec) 
Heartbeat CPU  0 instructions:  251000002 cycles:  777726845 heartbeat IPC: 0.36794 cumulative IPC: 0.22516 (Simulation time: 0 hr 11 min 13 sec) 
Heartbeat CPU  0 instructions:  252000000 cycles:  780436549 heartbeat IPC: 0.36904 cumulative IPC: 0.22574 (Simulation time: 0 hr 11 min 16 sec) 
Heartbeat CPU  0 instructions:  253000000 cycles:  783247727 heartbeat IPC: 0.35572 cumulative IPC: 0.22628 (Simulation time: 0 hr 11 min 18 sec) 
Heartbeat CPU  0 instructions:  254000002 cycles:  785975254 heartbeat IPC: 0.36663 cumulative IPC: 0.22684 (Simulation time: 0 hr 11 min 20 sec) 
Heartbeat CPU  0 instructions:  255000001 cycles:  788707977 heartbeat IPC: 0.36593 cumulative IPC: 0.22740 (Simulation time: 0 hr 11 min 22 sec) 
Heartbeat CPU  0 instructions:  256000000 cycles:  791446397 heartbeat IPC: 0.36517 cumulative IPC: 0.22795 (Simulation time: 0 hr 11 min 24 sec) 
Heartbeat CPU  0 instructions:  257000000 cycles:  794169466 heartbeat IPC: 0.36723 cumulative IPC: 0.22850 (Simulation time: 0 hr 11 min 27 sec) 
Heartbeat CPU  0 instructions:  258000000 cycles:  796884277 heartbeat IPC: 0.36835 cumulative IPC: 0.22905 (Simulation time: 0 hr 11 min 29 sec) 
Heartbeat CPU  0 instructions:  259000000 cycles:  799376617 heartbeat IPC: 0.40123 cumulative IPC: 0.22967 (Simulation time: 0 hr 11 min 31 sec) 
Heartbeat CPU  0 instructions:  260000000 cycles:  802054002 heartbeat IPC: 0.37350 cumulative IPC: 0.23023 (Simulation time: 0 hr 11 min 33 sec) 
Heartbeat CPU  0 instructions:  261000000 cycles:  804764543 heartbeat IPC: 0.36893 cumulative IPC: 0.23077 (Simulation time: 0 hr 11 min 36 sec) 
Heartbeat CPU  0 instructions:  262000000 cycles:  807494826 heartbeat IPC: 0.36626 cumulative IPC: 0.23129 (Simulation time: 0 hr 11 min 38 sec) 
Heartbeat CPU  0 instructions:  263000001 cycles:  810190458 heartbeat IPC: 0.37097 cumulative IPC: 0.23183 (Simulation time: 0 hr 11 min 40 sec) 
Heartbeat CPU  0 instructions:  264000000 cycles:  812827920 heartbeat IPC: 0.37915 cumulative IPC: 0.23238 (Simulation time: 0 hr 11 min 42 sec) 
Heartbeat CPU  0 instructions:  265000002 cycles:  815460670 heartbeat IPC: 0.37983 cumulative IPC: 0.23293 (Simulation time: 0 hr 11 min 45 sec) 
Heartbeat CPU  0 instructions:  266000002 cycles:  818111170 heartbeat IPC: 0.37729 cumulative IPC: 0.23347 (Simulation time: 0 hr 11 min 47 sec) 
Heartbeat CPU  0 instructions:  267000003 cycles:  820839049 heartbeat IPC: 0.36659 cumulative IPC: 0.23398 (Simulation time: 0 hr 11 min 49 sec) 
Heartbeat CPU  0 instructions:  268000000 cycles:  823583483 heartbeat IPC: 0.36437 cumulative IPC: 0.23448 (Simulation time: 0 hr 11 min 51 sec) 
Heartbeat CPU  0 instructions:  269000001 cycles:  826315700 heartbeat IPC: 0.36600 cumulative IPC: 0.23497 (Simulation time: 0 hr 11 min 54 sec) 
Heartbeat CPU  0 instructions:  270000001 cycles:  829022436 heartbeat IPC: 0.36945 cumulative IPC: 0.23548 (Simulation time: 0 hr 11 min 56 sec) 
Heartbeat CPU  0 instructions:  271000003 cycles:  831724367 heartbeat IPC: 0.37011 cumulative IPC: 0.23598 (Simulation time: 0 hr 11 min 58 sec) 
Heartbeat CPU  0 instructions:  272000000 cycles:  834453374 heartbeat IPC: 0.36643 cumulative IPC: 0.23647 (Simulation time: 0 hr 12 min 0 sec) 
Heartbeat CPU  0 instructions:  273000001 cycles:  837145706 heartbeat IPC: 0.37143 cumulative IPC: 0.23697 (Simulation time: 0 hr 12 min 3 sec) 
Heartbeat CPU  0 instructions:  274000003 cycles:  839933088 heartbeat IPC: 0.35876 cumulative IPC: 0.23743 (Simulation time: 0 hr 12 min 5 sec) 
Heartbeat CPU  0 instructions:  275000002 cycles:  842667565 heartbeat IPC: 0.36570 cumulative IPC: 0.23791 (Simulation time: 0 hr 12 min 7 sec) 
Heartbeat CPU  0 instructions:  276000000 cycles:  845330249 heartbeat IPC: 0.37556 cumulative IPC: 0.23840 (Simulation time: 0 hr 12 min 9 sec) 
Heartbeat CPU  0 instructions:  277000000 cycles:  847903851 heartbeat IPC: 0.38856 cumulative IPC: 0.23893 (Simulation time: 0 hr 12 min 12 sec) 
Heartbeat CPU  0 instructions:  278000001 cycles:  850391531 heartbeat IPC: 0.40198 cumulative IPC: 0.23947 (Simulation time: 0 hr 12 min 14 sec) 
Heartbeat CPU  0 instructions:  279000002 cycles:  852974843 heartbeat IPC: 0.38710 cumulative IPC: 0.23998 (Simulation time: 0 hr 12 min 16 sec) 
Heartbeat CPU  0 instructions:  280000000 cycles:  855678377 heartbeat IPC: 0.36989 cumulative IPC: 0.24045 (Simulation time: 0 hr 12 min 18 sec) 
Heartbeat CPU  0 instructions:  281000002 cycles:  858406931 heartbeat IPC: 0.36650 cumulative IPC: 0.24091 (Simulation time: 0 hr 12 min 21 sec) 
Heartbeat CPU  0 instructions:  282000003 cycles:  861052892 heartbeat IPC: 0.37793 cumulative IPC: 0.24139 (Simulation time: 0 hr 12 min 23 sec) 
Heartbeat CPU  0 instructions:  283000001 cycles:  863512492 heartbeat IPC: 0.40657 cumulative IPC: 0.24193 (Simulation time: 0 hr 12 min 25 sec) 
Heartbeat CPU  0 instructions:  284000000 cycles:  866128627 heartbeat IPC: 0.38224 cumulative IPC: 0.24241 (Simulation time: 0 hr 12 min 27 sec) 
Heartbeat CPU  0 instructions:  285000001 cycles:  868797902 heartbeat IPC: 0.37463 cumulative IPC: 0.24288 (Simulation time: 0 hr 12 min 29 sec) 
Heartbeat CPU  0 instructions:  286000000 cycles:  871284090 heartbeat IPC: 0.40222 cumulative IPC: 0.24339 (Simulation time: 0 hr 12 min 32 sec) 
Heartbeat CPU  0 instructions:  287000002 cycles:  873851040 heartbeat IPC: 0.38957 cumulative IPC: 0.24388 (Simulation time: 0 hr 12 min 34 sec) 
Heartbeat CPU  0 instructions:  288000000 cycles:  876564112 heartbeat IPC: 0.36859 cumulative IPC: 0.24432 (Simulation time: 0 hr 12 min 36 sec) 
Heartbeat CPU  0 instructions:  289000000 cycles:  879320870 heartbeat IPC: 0.36274 cumulative IPC: 0.24475 (Simulation time: 0 hr 12 min 38 sec) 
Heartbeat CPU  0 instructions:  290000002 cycles:  882197647 heartbeat IPC: 0.34761 cumulative IPC: 0.24513 (Simulation time: 0 hr 12 min 41 sec) 
Heartbeat CPU  0 instructions:  291000000 cycles:  885080618 heartbeat IPC: 0.34686 cumulative IPC: 0.24550 (Simulation time: 0 hr 12 min 43 sec) 
Heartbeat CPU  0 instructions:  292000000 cycles:  887906750 heartbeat IPC: 0.35384 cumulative IPC: 0.24590 (Simulation time: 0 hr 12 min 45 sec) 
Heartbeat CPU  0 instructions:  293000000 cycles:  890689520 heartbeat IPC: 0.35935 cumulative IPC: 0.24630 (Simulation time: 0 hr 12 min 48 sec) 
Heartbeat CPU  0 instructions:  294000002 cycles:  893446272 heartbeat IPC: 0.36275 cumulative IPC: 0.24671 (Simulation time: 0 hr 12 min 50 sec) 
Heartbeat CPU  0 instructions:  295000001 cycles:  896160596 heartbeat IPC: 0.36842 cumulative IPC: 0.24713 (Simulation time: 0 hr 12 min 52 sec) 
Heartbeat CPU  0 instructions:  296000000 cycles:  898938132 heartbeat IPC: 0.36003 cumulative IPC: 0.24752 (Simulation time: 0 hr 12 min 54 sec) 
Heartbeat CPU  0 instructions:  297000000 cycles:  901652406 heartbeat IPC: 0.36842 cumulative IPC: 0.24794 (Simulation time: 0 hr 12 min 57 sec) 
Heartbeat CPU  0 instructions:  298000000 cycles:  904323786 heartbeat IPC: 0.37434 cumulative IPC: 0.24836 (Simulation time: 0 hr 12 min 59 sec) 
Heartbeat CPU  0 instructions:  299000000 cycles:  907109694 heartbeat IPC: 0.35895 cumulative IPC: 0.24874 (Simulation time: 0 hr 13 min 1 sec) 
Heartbeat CPU  0 instructions:  300000000 cycles:  909791664 heartbeat IPC: 0.37286 cumulative IPC: 0.24916 (Simulation time: 0 hr 13 min 3 sec) 
Heartbeat CPU  0 instructions:  301000000 cycles:  912565425 heartbeat IPC: 0.36052 cumulative IPC: 0.24954 (Simulation time: 0 hr 13 min 6 sec) 
Heartbeat CPU  0 instructions:  302000000 cycles:  915309400 heartbeat IPC: 0.36443 cumulative IPC: 0.24993 (Simulation time: 0 hr 13 min 8 sec) 
Heartbeat CPU  0 instructions:  303000000 cycles:  918187478 heartbeat IPC: 0.34745 cumulative IPC: 0.25028 (Simulation time: 0 hr 13 min 10 sec) 
Heartbeat CPU  0 instructions:  304000000 cycles:  920905017 heartbeat IPC: 0.36798 cumulative IPC: 0.25067 (Simulation time: 0 hr 13 min 12 sec) 
Heartbeat CPU  0 instructions:  305000002 cycles:  923536034 heartbeat IPC: 0.38008 cumulative IPC: 0.25109 (Simulation time: 0 hr 13 min 15 sec) 
Heartbeat CPU  0 instructions:  306000000 cycles:  926425149 heartbeat IPC: 0.34613 cumulative IPC: 0.25142 (Simulation time: 0 hr 13 min 17 sec) 
Heartbeat CPU  0 instructions:  307000000 cycles:  929150852 heartbeat IPC: 0.36688 cumulative IPC: 0.25181 (Simulation time: 0 hr 13 min 19 sec) 
Heartbeat CPU  0 instructions:  308000000 cycles:  931865333 heartbeat IPC: 0.36839 cumulative IPC: 0.25219 (Simulation time: 0 hr 13 min 21 sec) 
Heartbeat CPU  0 instructions:  309000000 cycles:  934542962 heartbeat IPC: 0.37346 cumulative IPC: 0.25258 (Simulation time: 0 hr 13 min 24 sec) 
Heartbeat CPU  0 instructions:  310000000 cycles:  936983656 heartbeat IPC: 0.40972 cumulative IPC: 0.25304 (Simulation time: 0 hr 13 min 26 sec) 
Heartbeat CPU  0 instructions:  311000000 cycles:  938954432 heartbeat IPC: 0.50741 cumulative IPC: 0.25365 (Simulation time: 0 hr 13 min 28 sec) 
Heartbeat CPU  0 instructions:  312000000 cycles:  941624202 heartbeat IPC: 0.37456 cumulative IPC: 0.25403 (Simulation time: 0 hr 13 min 30 sec) 
Heartbeat CPU  0 instructions:  313000002 cycles:  944372049 heartbeat IPC: 0.36392 cumulative IPC: 0.25439 (Simulation time: 0 hr 13 min 32 sec) 
Heartbeat CPU  0 instructions:  314000002 cycles:  947107708 heartbeat IPC: 0.36554 cumulative IPC: 0.25476 (Simulation time: 0 hr 13 min 34 sec) 
Heartbeat CPU  0 instructions:  315000001 cycles:  949871496 heartbeat IPC: 0.36182 cumulative IPC: 0.25511 (Simulation time: 0 hr 13 min 37 sec) 
Heartbeat CPU  0 instructions:  316000000 cycles:  952683985 heartbeat IPC: 0.35556 cumulative IPC: 0.25544 (Simulation time: 0 hr 13 min 39 sec) 
Heartbeat CPU  0 instructions:  317000003 cycles:  955441008 heartbeat IPC: 0.36271 cumulative IPC: 0.25579 (Simulation time: 0 hr 13 min 41 sec) 
Heartbeat CPU  0 instructions:  318000000 cycles:  958154701 heartbeat IPC: 0.36850 cumulative IPC: 0.25615 (Simulation time: 0 hr 13 min 43 sec) 
Heartbeat CPU  0 instructions:  319000000 cycles:  960795236 heartbeat IPC: 0.37871 cumulative IPC: 0.25653 (Simulation time: 0 hr 13 min 46 sec) 
Heartbeat CPU  0 instructions:  320000000 cycles:  963475344 heartbeat IPC: 0.37312 cumulative IPC: 0.25689 (Simulation time: 0 hr 13 min 48 sec) 
Heartbeat CPU  0 instructions:  321000003 cycles:  966202820 heartbeat IPC: 0.36664 cumulative IPC: 0.25724 (Simulation time: 0 hr 13 min 50 sec) 
Heartbeat CPU  0 instructions:  322000002 cycles:  968815815 heartbeat IPC: 0.38270 cumulative IPC: 0.25762 (Simulation time: 0 hr 13 min 52 sec) 
Heartbeat CPU  0 instructions:  323000000 cycles:  971440767 heartbeat IPC: 0.38096 cumulative IPC: 0.25800 (Simulation time: 0 hr 13 min 54 sec) 
Heartbeat CPU  0 instructions:  324000000 cycles:  973721657 heartbeat IPC: 0.43843 cumulative IPC: 0.25847 (Simulation time: 0 hr 13 min 56 sec) 
Heartbeat CPU  0 instructions:  325000001 cycles:  976162078 heartbeat IPC: 0.40977 cumulative IPC: 0.25890 (Simulation time: 0 hr 13 min 59 sec) 
Heartbeat CPU  0 instructions:  326000000 cycles:  978630127 heartbeat IPC: 0.40518 cumulative IPC: 0.25931 (Simulation time: 0 hr 14 min 1 sec) 
Heartbeat CPU  0 instructions:  327000000 cycles:  981057496 heartbeat IPC: 0.41197 cumulative IPC: 0.25974 (Simulation time: 0 hr 14 min 3 sec) 
Heartbeat CPU  0 instructions:  328000000 cycles:  983731838 heartbeat IPC: 0.37392 cumulative IPC: 0.26008 (Simulation time: 0 hr 14 min 5 sec) 
Heartbeat CPU  0 instructions:  329000003 cycles:  986229071 heartbeat IPC: 0.40044 cumulative IPC: 0.26048 (Simulation time: 0 hr 14 min 7 sec) 
Heartbeat CPU  0 instructions:  330000001 cycles:  988575588 heartbeat IPC: 0.42616 cumulative IPC: 0.26092 (Simulation time: 0 hr 14 min 10 sec) 
Heartbeat CPU  0 instructions:  331000001 cycles:  990945503 heartbeat IPC: 0.42196 cumulative IPC: 0.26135 (Simulation time: 0 hr 14 min 12 sec) 
Heartbeat CPU  0 instructions:  332000000 cycles:  993535559 heartbeat IPC: 0.38609 cumulative IPC: 0.26172 (Simulation time: 0 hr 14 min 14 sec) 
Heartbeat CPU  0 instructions:  333000000 cycles:  996117903 heartbeat IPC: 0.38725 cumulative IPC: 0.26208 (Simulation time: 0 hr 14 min 16 sec) 
Heartbeat CPU  0 instructions:  334000001 cycles:  998664737 heartbeat IPC: 0.39264 cumulative IPC: 0.26246 (Simulation time: 0 hr 14 min 19 sec) 
Heartbeat CPU  0 instructions:  335000000 cycles: 1001272514 heartbeat IPC: 0.38347 cumulative IPC: 0.26281 (Simulation time: 0 hr 14 min 21 sec) 
Heartbeat CPU  0 instructions:  336000000 cycles: 1003672873 heartbeat IPC: 0.41660 cumulative IPC: 0.26322 (Simulation time: 0 hr 14 min 23 sec) 
Heartbeat CPU  0 instructions:  337000000 cycles: 1006064053 heartbeat IPC: 0.41820 cumulative IPC: 0.26363 (Simulation time: 0 hr 14 min 25 sec) 
Heartbeat CPU  0 instructions:  338000001 cycles: 1008542316 heartbeat IPC: 0.40351 cumulative IPC: 0.26402 (Simulation time: 0 hr 14 min 27 sec) 
Heartbeat CPU  0 instructions:  339000000 cycles: 1011010437 heartbeat IPC: 0.40517 cumulative IPC: 0.26440 (Simulation time: 0 hr 14 min 30 sec) 
Heartbeat CPU  0 instructions:  340000000 cycles: 1013636014 heartbeat IPC: 0.38087 cumulative IPC: 0.26474 (Simulation time: 0 hr 14 min 32 sec) 
Heartbeat CPU  0 instructions:  341000002 cycles: 1016245931 heartbeat IPC: 0.38315 cumulative IPC: 0.26508 (Simulation time: 0 hr 14 min 34 sec) 
Heartbeat CPU  0 instructions:  342000001 cycles: 1019009993 heartbeat IPC: 0.36179 cumulative IPC: 0.26537 (Simulation time: 0 hr 14 min 36 sec) 
Heartbeat CPU  0 instructions:  343000003 cycles: 1021605902 heartbeat IPC: 0.38522 cumulative IPC: 0.26571 (Simulation time: 0 hr 14 min 38 sec) 
Heartbeat CPU  0 instructions:  344000000 cycles: 1024135244 heartbeat IPC: 0.39536 cumulative IPC: 0.26607 (Simulation time: 0 hr 14 min 41 sec) 
Heartbeat CPU  0 instructions:  345000003 cycles: 1026938543 heartbeat IPC: 0.35672 cumulative IPC: 0.26635 (Simulation time: 0 hr 14 min 43 sec) 
Heartbeat CPU  0 instructions:  346000001 cycles: 1029664340 heartbeat IPC: 0.36686 cumulative IPC: 0.26665 (Simulation time: 0 hr 14 min 45 sec) 
Heartbeat CPU  0 instructions:  347000002 cycles: 1032175952 heartbeat IPC: 0.39815 cumulative IPC: 0.26700 (Simulation time: 0 hr 14 min 47 sec) 
Heartbeat CPU  0 instructions:  348000000 cycles: 1034544055 heartbeat IPC: 0.42228 cumulative IPC: 0.26740 (Simulation time: 0 hr 14 min 49 sec) 
Heartbeat CPU  0 instructions:  349000000 cycles: 1037183564 heartbeat IPC: 0.37886 cumulative IPC: 0.26772 (Simulation time: 0 hr 14 min 52 sec) 
Heartbeat CPU  0 instructions:  350000001 cycles: 1039704824 heartbeat IPC: 0.39663 cumulative IPC: 0.26806 (Simulation time: 0 hr 14 min 54 sec) 
Heartbeat CPU  0 instructions:  351000000 cycles: 1042509507 heartbeat IPC: 0.35655 cumulative IPC: 0.26833 (Simulation time: 0 hr 14 min 56 sec) 
Heartbeat CPU  0 instructions:  352000000 cycles: 1045189549 heartbeat IPC: 0.37313 cumulative IPC: 0.26863 (Simulation time: 0 hr 14 min 59 sec) 
Heartbeat CPU  0 instructions:  353000002 cycles: 1047762729 heartbeat IPC: 0.38862 cumulative IPC: 0.26896 (Simulation time: 0 hr 15 min 1 sec) 
Heartbeat CPU  0 instructions:  354000000 cycles: 1050537668 heartbeat IPC: 0.36037 cumulative IPC: 0.26923 (Simulation time: 0 hr 15 min 3 sec) 
Heartbeat CPU  0 instructions:  355000003 cycles: 1053281116 heartbeat IPC: 0.36451 cumulative IPC: 0.26950 (Simulation time: 0 hr 15 min 5 sec) 
Heartbeat CPU  0 instructions:  356000000 cycles: 1056017756 heartbeat IPC: 0.36541 cumulative IPC: 0.26978 (Simulation time: 0 hr 15 min 8 sec) 
Heartbeat CPU  0 instructions:  357000000 cycles: 1058694325 heartbeat IPC: 0.37361 cumulative IPC: 0.27007 (Simulation time: 0 hr 15 min 10 sec) 
Heartbeat CPU  0 instructions:  358000000 cycles: 1061399446 heartbeat IPC: 0.36967 cumulative IPC: 0.27035 (Simulation time: 0 hr 15 min 12 sec) 
Heartbeat CPU  0 instructions:  359000000 cycles: 1064087777 heartbeat IPC: 0.37198 cumulative IPC: 0.27064 (Simulation time: 0 hr 15 min 14 sec) 
Heartbeat CPU  0 instructions:  360000000 cycles: 1066767726 heartbeat IPC: 0.37314 cumulative IPC: 0.27092 (Simulation time: 0 hr 15 min 16 sec) 
Heartbeat CPU  0 instructions:  361000000 cycles: 1069306616 heartbeat IPC: 0.39387 cumulative IPC: 0.27125 (Simulation time: 0 hr 15 min 19 sec) 
Heartbeat CPU  0 instructions:  362000000 cycles: 1072206129 heartbeat IPC: 0.34489 cumulative IPC: 0.27147 (Simulation time: 0 hr 15 min 21 sec) 
Heartbeat CPU  0 instructions:  363000000 cycles: 1074991354 heartbeat IPC: 0.35904 cumulative IPC: 0.27172 (Simulation time: 0 hr 15 min 23 sec) 
Heartbeat CPU  0 instructions:  364000000 cycles: 1077464172 heartbeat IPC: 0.40440 cumulative IPC: 0.27206 (Simulation time: 0 hr 15 min 25 sec) 
Heartbeat CPU  0 instructions:  365000000 cycles: 1079912682 heartbeat IPC: 0.40841 cumulative IPC: 0.27240 (Simulation time: 0 hr 15 min 28 sec) 
Heartbeat CPU  0 instructions:  366000002 cycles: 1081807592 heartbeat IPC: 0.52773 cumulative IPC: 0.27290 (Simulation time: 0 hr 15 min 29 sec) 
Heartbeat CPU  0 instructions:  367000000 cycles: 1083559622 heartbeat IPC: 0.57077 cumulative IPC: 0.27343 (Simulation time: 0 hr 15 min 31 sec) 
Heartbeat CPU  0 instructions:  368000000 cycles: 1086953735 heartbeat IPC: 0.29463 cumulative IPC: 0.27351 (Simulation time: 0 hr 15 min 34 sec) 
Heartbeat CPU  0 instructions:  369000000 cycles: 1089735235 heartbeat IPC: 0.35952 cumulative IPC: 0.27375 (Simulation time: 0 hr 15 min 36 sec) 
Heartbeat CPU  0 instructions:  370000000 cycles: 1092838363 heartbeat IPC: 0.32226 cumulative IPC: 0.27390 (Simulation time: 0 hr 15 min 38 sec) 
Heartbeat CPU  0 instructions:  371000003 cycles: 1095510714 heartbeat IPC: 0.37420 cumulative IPC: 0.27417 (Simulation time: 0 hr 15 min 41 sec) 
Heartbeat CPU  0 instructions:  372000000 cycles: 1098175028 heartbeat IPC: 0.37533 cumulative IPC: 0.27445 (Simulation time: 0 hr 15 min 43 sec) 
Heartbeat CPU  0 instructions:  373000002 cycles: 1100840197 heartbeat IPC: 0.37521 cumulative IPC: 0.27472 (Simulation time: 0 hr 15 min 45 sec) 
Heartbeat CPU  0 instructions:  374000001 cycles: 1103637093 heartbeat IPC: 0.35754 cumulative IPC: 0.27495 (Simulation time: 0 hr 15 min 47 sec) 
Heartbeat CPU  0 instructions:  375000000 cycles: 1106410368 heartbeat IPC: 0.36058 cumulative IPC: 0.27519 (Simulation time: 0 hr 15 min 50 sec) 
Heartbeat CPU  0 instructions:  376000000 cycles: 1109188401 heartbeat IPC: 0.35997 cumulative IPC: 0.27542 (Simulation time: 0 hr 15 min 52 sec) 
Heartbeat CPU  0 instructions:  377000002 cycles: 1111958987 heartbeat IPC: 0.36094 cumulative IPC: 0.27566 (Simulation time: 0 hr 15 min 54 sec) 
Heartbeat CPU  0 instructions:  378000001 cycles: 1114722767 heartbeat IPC: 0.36182 cumulative IPC: 0.27589 (Simulation time: 0 hr 15 min 56 sec) 
Heartbeat CPU  0 instructions:  379000000 cycles: 1117580570 heartbeat IPC: 0.34992 cumulative IPC: 0.27610 (Simulation time: 0 hr 15 min 59 sec) 
Heartbeat CPU  0 instructions:  380000000 cycles: 1120413002 heartbeat IPC: 0.35305 cumulative IPC: 0.27632 (Simulation time: 0 hr 16 min 1 sec) 
Heartbeat CPU  0 instructions:  381000002 cycles: 1123479208 heartbeat IPC: 0.32614 cumulative IPC: 0.27647 (Simulation time: 0 hr 16 min 3 sec) 
Heartbeat CPU  0 instructions:  382000000 cycles: 1126199958 heartbeat IPC: 0.36754 cumulative IPC: 0.27671 (Simulation time: 0 hr 16 min 6 sec) 
Heartbeat CPU  0 instructions:  383000001 cycles: 1129189479 heartbeat IPC: 0.33450 cumulative IPC: 0.27688 (Simulation time: 0 hr 16 min 8 sec) 
Heartbeat CPU  0 instructions:  384000000 cycles: 1131989494 heartbeat IPC: 0.35714 cumulative IPC: 0.27710 (Simulation time: 0 hr 16 min 10 sec) 
Heartbeat CPU  0 instructions:  385000002 cycles: 1134709736 heartbeat IPC: 0.36762 cumulative IPC: 0.27734 (Simulation time: 0 hr 16 min 12 sec) 
Heartbeat CPU  0 instructions:  386000000 cycles: 1137284459 heartbeat IPC: 0.38839 cumulative IPC: 0.27762 (Simulation time: 0 hr 16 min 15 sec) 
Heartbeat CPU  0 instructions:  387000000 cycles: 1139894428 heartbeat IPC: 0.38315 cumulative IPC: 0.27788 (Simulation time: 0 hr 16 min 17 sec) 
Heartbeat CPU  0 instructions:  388000000 cycles: 1142853297 heartbeat IPC: 0.33797 cumulative IPC: 0.27806 (Simulation time: 0 hr 16 min 20 sec) 
Heartbeat CPU  0 instructions:  389000000 cycles: 1145522807 heartbeat IPC: 0.37460 cumulative IPC: 0.27830 (Simulation time: 0 hr 16 min 23 sec) 
Heartbeat CPU  0 instructions:  390000001 cycles: 1149042900 heartbeat IPC: 0.28408 cumulative IPC: 0.27832 (Simulation time: 0 hr 16 min 25 sec) 
Heartbeat CPU  0 instructions:  391000001 cycles: 1151916612 heartbeat IPC: 0.34798 cumulative IPC: 0.27852 (Simulation time: 0 hr 16 min 28 sec) 
Heartbeat CPU  0 instructions:  392000000 cycles: 1154634777 heartbeat IPC: 0.36789 cumulative IPC: 0.27875 (Simulation time: 0 hr 16 min 30 sec) 
Heartbeat CPU  0 instructions:  393000001 cycles: 1157426316 heartbeat IPC: 0.35823 cumulative IPC: 0.27896 (Simulation time: 0 hr 16 min 33 sec) 
Heartbeat CPU  0 instructions:  394000002 cycles: 1160275698 heartbeat IPC: 0.35095 cumulative IPC: 0.27915 (Simulation time: 0 hr 16 min 35 sec) 
Heartbeat CPU  0 instructions:  395000000 cycles: 1163127654 heartbeat IPC: 0.35064 cumulative IPC: 0.27935 (Simulation time: 0 hr 16 min 38 sec) 
Heartbeat CPU  0 instructions:  396000000 cycles: 1166071847 heartbeat IPC: 0.33965 cumulative IPC: 0.27951 (Simulation time: 0 hr 16 min 40 sec) 
Heartbeat CPU  0 instructions:  397000000 cycles: 1168977084 heartbeat IPC: 0.34421 cumulative IPC: 0.27969 (Simulation time: 0 hr 16 min 42 sec) 
Heartbeat CPU  0 instructions:  398000000 cycles: 1171536971 heartbeat IPC: 0.39064 cumulative IPC: 0.27996 (Simulation time: 0 hr 16 min 45 sec) 
Heartbeat CPU  0 instructions:  399000000 cycles: 1174461949 heartbeat IPC: 0.34188 cumulative IPC: 0.28013 (Simulation time: 0 hr 16 min 47 sec) 
Heartbeat CPU  0 instructions:  400000000 cycles: 1177138970 heartbeat IPC: 0.37355 cumulative IPC: 0.28036 (Simulation time: 0 hr 16 min 49 sec) 
Heartbeat CPU  0 instructions:  401000003 cycles: 1179986895 heartbeat IPC: 0.35113 cumulative IPC: 0.28055 (Simulation time: 0 hr 16 min 51 sec) 
Heartbeat CPU  0 instructions:  402000001 cycles: 1182670487 heartbeat IPC: 0.37263 cumulative IPC: 0.28078 (Simulation time: 0 hr 16 min 54 sec) 
Heartbeat CPU  0 instructions:  403000001 cycles: 1185170565 heartbeat IPC: 0.39999 cumulative IPC: 0.28106 (Simulation time: 0 hr 16 min 56 sec) 
Heartbeat CPU  0 instructions:  404000000 cycles: 1188039167 heartbeat IPC: 0.34860 cumulative IPC: 0.28123 (Simulation time: 0 hr 16 min 58 sec) 
Heartbeat CPU  0 instructions:  405000001 cycles: 1190879544 heartbeat IPC: 0.35207 cumulative IPC: 0.28142 (Simulation time: 0 hr 17 min 0 sec) 
Heartbeat CPU  0 instructions:  406000002 cycles: 1193728054 heartbeat IPC: 0.35106 cumulative IPC: 0.28160 (Simulation time: 0 hr 17 min 3 sec) 
Heartbeat CPU  0 instructions:  407000000 cycles: 1196393915 heartbeat IPC: 0.37511 cumulative IPC: 0.28183 (Simulation time: 0 hr 17 min 5 sec) 
Heartbeat CPU  0 instructions:  408000000 cycles: 1199159478 heartbeat IPC: 0.36159 cumulative IPC: 0.28203 (Simulation time: 0 hr 17 min 7 sec) 
Heartbeat CPU  0 instructions:  409000003 cycles: 1201901530 heartbeat IPC: 0.36469 cumulative IPC: 0.28224 (Simulation time: 0 hr 17 min 9 sec) 
Heartbeat CPU  0 instructions:  410000002 cycles: 1204560028 heartbeat IPC: 0.37615 cumulative IPC: 0.28247 (Simulation time: 0 hr 17 min 11 sec) 
Heartbeat CPU  0 instructions:  411000000 cycles: 1207335803 heartbeat IPC: 0.36026 cumulative IPC: 0.28266 (Simulation time: 0 hr 17 min 14 sec) 
Heartbeat CPU  0 instructions:  412000000 cycles: 1210016678 heartbeat IPC: 0.37301 cumulative IPC: 0.28288 (Simulation time: 0 hr 17 min 16 sec) 
Heartbeat CPU  0 instructions:  413000001 cycles: 1212827909 heartbeat IPC: 0.35572 cumulative IPC: 0.28307 (Simulation time: 0 hr 17 min 18 sec) 
Heartbeat CPU  0 instructions:  414000003 cycles: 1215489900 heartbeat IPC: 0.37566 cumulative IPC: 0.28329 (Simulation time: 0 hr 17 min 20 sec) 
Heartbeat CPU  0 instructions:  415000002 cycles: 1218165799 heartbeat IPC: 0.37371 cumulative IPC: 0.28351 (Simulation time: 0 hr 17 min 22 sec) 
Heartbeat CPU  0 instructions:  416000000 cycles: 1220862829 heartbeat IPC: 0.37078 cumulative IPC: 0.28372 (Simulation time: 0 hr 17 min 25 sec) 
Heartbeat CPU  0 instructions:  417000003 cycles: 1223622158 heartbeat IPC: 0.36241 cumulative IPC: 0.28391 (Simulation time: 0 hr 17 min 27 sec) 
Heartbeat CPU  0 instructions:  418000001 cycles: 1226390958 heartbeat IPC: 0.36117 cumulative IPC: 0.28411 (Simulation time: 0 hr 17 min 29 sec) 
Heartbeat CPU  0 instructions:  419000000 cycles: 1229214049 heartbeat IPC: 0.35422 cumulative IPC: 0.28428 (Simulation time: 0 hr 17 min 31 sec) 
Heartbeat CPU  0 instructions:  420000000 cycles: 1231965277 heartbeat IPC: 0.36347 cumulative IPC: 0.28448 (Simulation time: 0 hr 17 min 33 sec) 
Heartbeat CPU  0 instructions:  421000000 cycles: 1234501736 heartbeat IPC: 0.39425 cumulative IPC: 0.28472 (Simulation time: 0 hr 17 min 36 sec) 
Heartbeat CPU  0 instructions:  422000001 cycles: 1237332949 heartbeat IPC: 0.35321 cumulative IPC: 0.28489 (Simulation time: 0 hr 17 min 38 sec) 
Heartbeat CPU  0 instructions:  423000003 cycles: 1240041281 heartbeat IPC: 0.36923 cumulative IPC: 0.28510 (Simulation time: 0 hr 17 min 40 sec) 
Heartbeat CPU  0 instructions:  424000000 cycles: 1242634072 heartbeat IPC: 0.38568 cumulative IPC: 0.28533 (Simulation time: 0 hr 17 min 42 sec) 
Heartbeat CPU  0 instructions:  425000001 cycles: 1245366205 heartbeat IPC: 0.36601 cumulative IPC: 0.28552 (Simulation time: 0 hr 17 min 44 sec) 
Heartbeat CPU  0 instructions:  426000003 cycles: 1248005291 heartbeat IPC: 0.37892 cumulative IPC: 0.28574 (Simulation time: 0 hr 17 min 47 sec) 
Heartbeat CPU  0 instructions:  427000002 cycles: 1250598557 heartbeat IPC: 0.38561 cumulative IPC: 0.28596 (Simulation time: 0 hr 17 min 49 sec) 
Heartbeat CPU  0 instructions:  428000000 cycles: 1253195145 heartbeat IPC: 0.38512 cumulative IPC: 0.28619 (Simulation time: 0 hr 17 min 51 sec) 
Heartbeat CPU  0 instructions:  429000003 cycles: 1255765477 heartbeat IPC: 0.38906 cumulative IPC: 0.28642 (Simulation time: 0 hr 17 min 53 sec) 
Heartbeat CPU  0 instructions:  430000002 cycles: 1258531418 heartbeat IPC: 0.36154 cumulative IPC: 0.28660 (Simulation time: 0 hr 17 min 55 sec) 
Heartbeat CPU  0 instructions:  431000001 cycles: 1261053066 heartbeat IPC: 0.39657 cumulative IPC: 0.28684 (Simulation time: 0 hr 17 min 58 sec) 
Heartbeat CPU  0 instructions:  432000000 cycles: 1263758337 heartbeat IPC: 0.36965 cumulative IPC: 0.28703 (Simulation time: 0 hr 18 min 0 sec) 
Heartbeat CPU  0 instructions:  433000003 cycles: 1266449657 heartbeat IPC: 0.37157 cumulative IPC: 0.28723 (Simulation time: 0 hr 18 min 2 sec) 
Heartbeat CPU  0 instructions:  434000000 cycles: 1269024096 heartbeat IPC: 0.38843 cumulative IPC: 0.28745 (Simulation time: 0 hr 18 min 4 sec) 
Heartbeat CPU  0 instructions:  435000000 cycles: 1271825546 heartbeat IPC: 0.35696 cumulative IPC: 0.28762 (Simulation time: 0 hr 18 min 6 sec) 
Heartbeat CPU  0 instructions:  436000000 cycles: 1274164525 heartbeat IPC: 0.42754 cumulative IPC: 0.28790 (Simulation time: 0 hr 18 min 8 sec) 
Heartbeat CPU  0 instructions:  437000003 cycles: 1276743487 heartbeat IPC: 0.38775 cumulative IPC: 0.28812 (Simulation time: 0 hr 18 min 11 sec) 
Heartbeat CPU  0 instructions:  438000001 cycles: 1279633744 heartbeat IPC: 0.34599 cumulative IPC: 0.28826 (Simulation time: 0 hr 18 min 13 sec) 
Heartbeat CPU  0 instructions:  439000000 cycles: 1282585720 heartbeat IPC: 0.33876 cumulative IPC: 0.28839 (Simulation time: 0 hr 18 min 15 sec) 
Heartbeat CPU  0 instructions:  440000000 cycles: 1285352158 heartbeat IPC: 0.36148 cumulative IPC: 0.28856 (Simulation time: 0 hr 18 min 17 sec) 
Heartbeat CPU  0 instructions:  441000003 cycles: 1288148143 heartbeat IPC: 0.35766 cumulative IPC: 0.28872 (Simulation time: 0 hr 18 min 20 sec) 
Heartbeat CPU  0 instructions:  442000002 cycles: 1290910772 heartbeat IPC: 0.36197 cumulative IPC: 0.28890 (Simulation time: 0 hr 18 min 22 sec) 
Heartbeat CPU  0 instructions:  443000001 cycles: 1293753310 heartbeat IPC: 0.35180 cumulative IPC: 0.28905 (Simulation time: 0 hr 18 min 24 sec) 
Heartbeat CPU  0 instructions:  444000000 cycles: 1296529848 heartbeat IPC: 0.36016 cumulative IPC: 0.28921 (Simulation time: 0 hr 18 min 26 sec) 
Heartbeat CPU  0 instructions:  445000000 cycles: 1299393899 heartbeat IPC: 0.34916 cumulative IPC: 0.28936 (Simulation time: 0 hr 18 min 29 sec) 
Heartbeat CPU  0 instructions:  446000000 cycles: 1302246125 heartbeat IPC: 0.35060 cumulative IPC: 0.28950 (Simulation time: 0 hr 18 min 31 sec) 
Heartbeat CPU  0 instructions:  447000000 cycles: 1305054335 heartbeat IPC: 0.35610 cumulative IPC: 0.28966 (Simulation time: 0 hr 18 min 33 sec) 
Heartbeat CPU  0 instructions:  448000000 cycles: 1307583525 heartbeat IPC: 0.39538 cumulative IPC: 0.28988 (Simulation time: 0 hr 18 min 35 sec) 
Heartbeat CPU  0 instructions:  449000001 cycles: 1310463054 heartbeat IPC: 0.34728 cumulative IPC: 0.29002 (Simulation time: 0 hr 18 min 38 sec) 
Heartbeat CPU  0 instructions:  450000002 cycles: 1313240893 heartbeat IPC: 0.35999 cumulative IPC: 0.29018 (Simulation time: 0 hr 18 min 40 sec) 
Heartbeat CPU  0 instructions:  451000001 cycles: 1315931779 heartbeat IPC: 0.37162 cumulative IPC: 0.29036 (Simulation time: 0 hr 18 min 42 sec) 
Heartbeat CPU  0 instructions:  452000000 cycles: 1318754179 heartbeat IPC: 0.35431 cumulative IPC: 0.29051 (Simulation time: 0 hr 18 min 44 sec) 
Heartbeat CPU  0 instructions:  453000001 cycles: 1321554376 heartbeat IPC: 0.35712 cumulative IPC: 0.29066 (Simulation time: 0 hr 18 min 47 sec) 
Heartbeat CPU  0 instructions:  454000003 cycles: 1324416841 heartbeat IPC: 0.34935 cumulative IPC: 0.29080 (Simulation time: 0 hr 18 min 49 sec) 
Heartbeat CPU  0 instructions:  455000000 cycles: 1327135611 heartbeat IPC: 0.36781 cumulative IPC: 0.29097 (Simulation time: 0 hr 18 min 51 sec) 
Heartbeat CPU  0 instructions:  456000000 cycles: 1329962959 heartbeat IPC: 0.35369 cumulative IPC: 0.29112 (Simulation time: 0 hr 18 min 53 sec) 
Heartbeat CPU  0 instructions:  457000000 cycles: 1332692684 heartbeat IPC: 0.36634 cumulative IPC: 0.29129 (Simulation time: 0 hr 18 min 56 sec) 
Heartbeat CPU  0 instructions:  458000003 cycles: 1335484227 heartbeat IPC: 0.35823 cumulative IPC: 0.29144 (Simulation time: 0 hr 18 min 58 sec) 
Heartbeat CPU  0 instructions:  459000001 cycles: 1338223059 heartbeat IPC: 0.36512 cumulative IPC: 0.29160 (Simulation time: 0 hr 19 min 0 sec) 
Heartbeat CPU  0 instructions:  460000000 cycles: 1340958300 heartbeat IPC: 0.36560 cumulative IPC: 0.29177 (Simulation time: 0 hr 19 min 2 sec) 
Heartbeat CPU  0 instructions:  461000002 cycles: 1343737193 heartbeat IPC: 0.35986 cumulative IPC: 0.29192 (Simulation time: 0 hr 19 min 4 sec) 
Heartbeat CPU  0 instructions:  462000001 cycles: 1346464274 heartbeat IPC: 0.36669 cumulative IPC: 0.29208 (Simulation time: 0 hr 19 min 7 sec) 
Heartbeat CPU  0 instructions:  463000001 cycles: 1349292360 heartbeat IPC: 0.35360 cumulative IPC: 0.29222 (Simulation time: 0 hr 19 min 9 sec) 
Heartbeat CPU  0 instructions:  464000000 cycles: 1352101490 heartbeat IPC: 0.35598 cumulative IPC: 0.29237 (Simulation time: 0 hr 19 min 11 sec) 
Heartbeat CPU  0 instructions:  465000001 cycles: 1354728833 heartbeat IPC: 0.38061 cumulative IPC: 0.29255 (Simulation time: 0 hr 19 min 13 sec) 
Heartbeat CPU  0 instructions:  466000000 cycles: 1357452863 heartbeat IPC: 0.36710 cumulative IPC: 0.29272 (Simulation time: 0 hr 19 min 15 sec) 
Heartbeat CPU  0 instructions:  467000003 cycles: 1360168094 heartbeat IPC: 0.36829 cumulative IPC: 0.29288 (Simulation time: 0 hr 19 min 18 sec) 
Heartbeat CPU  0 instructions:  468000000 cycles: 1362812727 heartbeat IPC: 0.37812 cumulative IPC: 0.29306 (Simulation time: 0 hr 19 min 20 sec) 
Heartbeat CPU  0 instructions:  469000002 cycles: 1365394451 heartbeat IPC: 0.38734 cumulative IPC: 0.29325 (Simulation time: 0 hr 19 min 22 sec) 
Heartbeat CPU  0 instructions:  470000000 cycles: 1368098268 heartbeat IPC: 0.36985 cumulative IPC: 0.29342 (Simulation time: 0 hr 19 min 24 sec) 
Heartbeat CPU  0 instructions:  471000000 cycles: 1370694676 heartbeat IPC: 0.38515 cumulative IPC: 0.29360 (Simulation time: 0 hr 19 min 26 sec) 
Heartbeat CPU  0 instructions:  472000000 cycles: 1373364124 heartbeat IPC: 0.37461 cumulative IPC: 0.29378 (Simulation time: 0 hr 19 min 29 sec) 
Heartbeat CPU  0 instructions:  473000001 cycles: 1376294581 heartbeat IPC: 0.34124 cumulative IPC: 0.29388 (Simulation time: 0 hr 19 min 31 sec) 
Heartbeat CPU  0 instructions:  474000000 cycles: 1378925936 heartbeat IPC: 0.38003 cumulative IPC: 0.29406 (Simulation time: 0 hr 19 min 33 sec) 
Heartbeat CPU  0 instructions:  475000000 cycles: 1381747289 heartbeat IPC: 0.35444 cumulative IPC: 0.29420 (Simulation time: 0 hr 19 min 35 sec) 
Heartbeat CPU  0 instructions:  476000000 cycles: 1384565545 heartbeat IPC: 0.35483 cumulative IPC: 0.29433 (Simulation time: 0 hr 19 min 38 sec) 
Heartbeat CPU  0 instructions:  477000003 cycles: 1387300047 heartbeat IPC: 0.36570 cumulative IPC: 0.29448 (Simulation time: 0 hr 19 min 40 sec) 
Heartbeat CPU  0 instructions:  478000001 cycles: 1389962842 heartbeat IPC: 0.37554 cumulative IPC: 0.29465 (Simulation time: 0 hr 19 min 42 sec) 
Heartbeat CPU  0 instructions:  479000001 cycles: 1392570218 heartbeat IPC: 0.38353 cumulative IPC: 0.29483 (Simulation time: 0 hr 19 min 44 sec) 
Heartbeat CPU  0 instructions:  480000000 cycles: 1395435647 heartbeat IPC: 0.34899 cumulative IPC: 0.29495 (Simulation time: 0 hr 19 min 46 sec) 
Heartbeat CPU  0 instructions:  481000000 cycles: 1398115025 heartbeat IPC: 0.37322 cumulative IPC: 0.29511 (Simulation time: 0 hr 19 min 49 sec) 
Heartbeat CPU  0 instructions:  482000000 cycles: 1400754224 heartbeat IPC: 0.37890 cumulative IPC: 0.29529 (Simulation time: 0 hr 19 min 51 sec) 
Heartbeat CPU  0 instructions:  483000000 cycles: 1403316052 heartbeat IPC: 0.39035 cumulative IPC: 0.29547 (Simulation time: 0 hr 19 min 53 sec) 
Heartbeat CPU  0 instructions:  484000000 cycles: 1406014523 heartbeat IPC: 0.37058 cumulative IPC: 0.29563 (Simulation time: 0 hr 19 min 55 sec) 
Heartbeat CPU  0 instructions:  485000000 cycles: 1408676002 heartbeat IPC: 0.37573 cumulative IPC: 0.29579 (Simulation time: 0 hr 19 min 57 sec) 
Heartbeat CPU  0 instructions:  486000000 cycles: 1411295935 heartbeat IPC: 0.38169 cumulative IPC: 0.29597 (Simulation time: 0 hr 19 min 59 sec) 
Heartbeat CPU  0 instructions:  487000003 cycles: 1414109964 heartbeat IPC: 0.35536 cumulative IPC: 0.29609 (Simulation time: 0 hr 20 min 2 sec) 
Heartbeat CPU  0 instructions:  488000000 cycles: 1416915353 heartbeat IPC: 0.35646 cumulative IPC: 0.29622 (Simulation time: 0 hr 20 min 4 sec) 
Heartbeat CPU  0 instructions:  489000000 cycles: 1419633095 heartbeat IPC: 0.36795 cumulative IPC: 0.29637 (Simulation time: 0 hr 20 min 6 sec) 
Heartbeat CPU  0 instructions:  490000003 cycles: 1422399632 heartbeat IPC: 0.36146 cumulative IPC: 0.29651 (Simulation time: 0 hr 20 min 8 sec) 
Heartbeat CPU  0 instructions:  491000001 cycles: 1425127946 heartbeat IPC: 0.36653 cumulative IPC: 0.29665 (Simulation time: 0 hr 20 min 10 sec) 
Heartbeat CPU  0 instructions:  492000000 cycles: 1427913563 heartbeat IPC: 0.35899 cumulative IPC: 0.29678 (Simulation time: 0 hr 20 min 13 sec) 
Heartbeat CPU  0 instructions:  493000000 cycles: 1430604120 heartbeat IPC: 0.37167 cumulative IPC: 0.29694 (Simulation time: 0 hr 20 min 15 sec) 
Heartbeat CPU  0 instructions:  494000000 cycles: 1433251713 heartbeat IPC: 0.37770 cumulative IPC: 0.29710 (Simulation time: 0 hr 20 min 17 sec) 
Heartbeat CPU  0 instructions:  495000001 cycles: 1436095263 heartbeat IPC: 0.35167 cumulative IPC: 0.29721 (Simulation time: 0 hr 20 min 19 sec) 
Heartbeat CPU  0 instructions:  496000000 cycles: 1438857984 heartbeat IPC: 0.36196 cumulative IPC: 0.29735 (Simulation time: 0 hr 20 min 22 sec) 
Heartbeat CPU  0 instructions:  497000001 cycles: 1441642297 heartbeat IPC: 0.35916 cumulative IPC: 0.29748 (Simulation time: 0 hr 20 min 24 sec) 
Heartbeat CPU  0 instructions:  498000000 cycles: 1444416563 heartbeat IPC: 0.36046 cumulative IPC: 0.29761 (Simulation time: 0 hr 20 min 26 sec) 
Heartbeat CPU  0 instructions:  499000002 cycles: 1447156956 heartbeat IPC: 0.36491 cumulative IPC: 0.29775 (Simulation time: 0 hr 20 min 28 sec) 
Heartbeat CPU  0 instructions:  500000000 cycles: 1449853891 heartbeat IPC: 0.37079 cumulative IPC: 0.29789 (Simulation time: 0 hr 20 min 30 sec) 
Heartbeat CPU  0 instructions:  501000000 cycles: 1452598834 heartbeat IPC: 0.36431 cumulative IPC: 0.29803 (Simulation time: 0 hr 20 min 33 sec) 
Heartbeat CPU  0 instructions:  502000000 cycles: 1455386958 heartbeat IPC: 0.35866 cumulative IPC: 0.29815 (Simulation time: 0 hr 20 min 35 sec) 
Heartbeat CPU  0 instructions:  503000002 cycles: 1458219363 heartbeat IPC: 0.35306 cumulative IPC: 0.29827 (Simulation time: 0 hr 20 min 37 sec) 
Heartbeat CPU  0 instructions:  504000000 cycles: 1461057282 heartbeat IPC: 0.35237 cumulative IPC: 0.29838 (Simulation time: 0 hr 20 min 39 sec) 
Heartbeat CPU  0 instructions:  505000001 cycles: 1463681735 heartbeat IPC: 0.38103 cumulative IPC: 0.29854 (Simulation time: 0 hr 20 min 41 sec) 
Heartbeat CPU  0 instructions:  506000001 cycles: 1466507527 heartbeat IPC: 0.35388 cumulative IPC: 0.29866 (Simulation time: 0 hr 20 min 44 sec) 
Heartbeat CPU  0 instructions:  507000001 cycles: 1469387502 heartbeat IPC: 0.34723 cumulative IPC: 0.29876 (Simulation time: 0 hr 20 min 46 sec) 
Heartbeat CPU  0 instructions:  508000000 cycles: 1472134495 heartbeat IPC: 0.36403 cumulative IPC: 0.29889 (Simulation time: 0 hr 20 min 48 sec) 
Heartbeat CPU  0 instructions:  509000001 cycles: 1474759802 heartbeat IPC: 0.38091 cumulative IPC: 0.29905 (Simulation time: 0 hr 20 min 50 sec) 
Heartbeat CPU  0 instructions:  510000003 cycles: 1477506859 heartbeat IPC: 0.36403 cumulative IPC: 0.29918 (Simulation time: 0 hr 20 min 52 sec) 
Heartbeat CPU  0 instructions:  511000001 cycles: 1479951839 heartbeat IPC: 0.40900 cumulative IPC: 0.29937 (Simulation time: 0 hr 20 min 55 sec) 
Heartbeat CPU  0 instructions:  512000000 cycles: 1482709522 heartbeat IPC: 0.36262 cumulative IPC: 0.29950 (Simulation time: 0 hr 20 min 57 sec) 
Heartbeat CPU  0 instructions:  513000001 cycles: 1485415879 heartbeat IPC: 0.36950 cumulative IPC: 0.29964 (Simulation time: 0 hr 20 min 59 sec) 
Heartbeat CPU  0 instructions:  514000002 cycles: 1488122298 heartbeat IPC: 0.36949 cumulative IPC: 0.29978 (Simulation time: 0 hr 21 min 1 sec) 
Heartbeat CPU  0 instructions:  515000001 cycles: 1490654769 heartbeat IPC: 0.39487 cumulative IPC: 0.29995 (Simulation time: 0 hr 21 min 3 sec) 
Heartbeat CPU  0 instructions:  516000000 cycles: 1493158384 heartbeat IPC: 0.39942 cumulative IPC: 0.30013 (Simulation time: 0 hr 21 min 5 sec) 
Heartbeat CPU  0 instructions:  517000002 cycles: 1495985540 heartbeat IPC: 0.35371 cumulative IPC: 0.30024 (Simulation time: 0 hr 21 min 7 sec) 
Heartbeat CPU  0 instructions:  518000001 cycles: 1498797776 heartbeat IPC: 0.35559 cumulative IPC: 0.30035 (Simulation time: 0 hr 21 min 10 sec) 
Heartbeat CPU  0 instructions:  519000001 cycles: 1501512126 heartbeat IPC: 0.36841 cumulative IPC: 0.30048 (Simulation time: 0 hr 21 min 12 sec) 
Heartbeat CPU  0 instructions:  520000000 cycles: 1504320291 heartbeat IPC: 0.35610 cumulative IPC: 0.30059 (Simulation time: 0 hr 21 min 14 sec) 
Heartbeat CPU  0 instructions:  521000000 cycles: 1506982963 heartbeat IPC: 0.37556 cumulative IPC: 0.30074 (Simulation time: 0 hr 21 min 16 sec) 
Heartbeat CPU  0 instructions:  522000000 cycles: 1509642849 heartbeat IPC: 0.37596 cumulative IPC: 0.30088 (Simulation time: 0 hr 21 min 18 sec) 
Heartbeat CPU  0 instructions:  523000002 cycles: 1512125829 heartbeat IPC: 0.40274 cumulative IPC: 0.30106 (Simulation time: 0 hr 21 min 20 sec) 
Heartbeat CPU  0 instructions:  524000000 cycles: 1514914637 heartbeat IPC: 0.35858 cumulative IPC: 0.30117 (Simulation time: 0 hr 21 min 22 sec) 
Heartbeat CPU  0 instructions:  525000000 cycles: 1517571920 heartbeat IPC: 0.37632 cumulative IPC: 0.30132 (Simulation time: 0 hr 21 min 25 sec) 
Heartbeat CPU  0 instructions:  526000000 cycles: 1520553536 heartbeat IPC: 0.33539 cumulative IPC: 0.30139 (Simulation time: 0 hr 21 min 27 sec) 
Heartbeat CPU  0 instructions:  527000000 cycles: 1522996911 heartbeat IPC: 0.40927 cumulative IPC: 0.30157 (Simulation time: 0 hr 21 min 29 sec) 
Heartbeat CPU  0 instructions:  528000000 cycles: 1525615113 heartbeat IPC: 0.38194 cumulative IPC: 0.30172 (Simulation time: 0 hr 21 min 31 sec) 
[...]
Heartbeat CPU  0 instructions:  598000000 cycles: 1712323890 heartbeat IPC: 0.38686 cumulative IPC: 0.31024 (Simulation time: 0 hr 24 min 3 sec) 
Heartbeat CPU  0 instructions:  599000000 cycles: 1715211247 heartbeat IPC: 0.34634 cumulative IPC: 0.31030 (Simulation time: 0 hr 24 min 5 sec) 
Heartbeat CPU  0 instructions:  600000000 cycles: 1717642564 heartbeat IPC: 0.41130 cumulative IPC: 0.31045 (Simulation time: 0 hr 24 min 7 sec) 
Finished CPU 0 instructions: 500000000 cycles: 1610552441 cumulative IPC: 0.31045 (Simulation time: 0 hr 24 min 7 sec) 

ChampSim completed all CPUs

[ROI Statistics]
Core_0_instructions 500000000
Core_0_cycles 1610552441
Core_0_IPC 0.31045

Core_0_branch_prediction_accuracy 85.18932
Core_0_branch_MPKI 24.43069
Core_0_average_ROB_occupancy_at_mispredict 38.25148

Core_0_L1D_total_access 156100715
Core_0_L1D_total_hit 153785097
Core_0_L1D_total_miss 2315618
Core_0_L1D_loads 90207214
Core_0_L1D_load_hit 89377693
Core_0_L1D_load_miss 829521
Core_0_L1D_RFOs 65893501
Core_0_L1D_RFO_hit 64407404
Core_0_L1D_RFO_miss 1486097
Core_0_L1D_prefetches 0
Core_0_L1D_prefetch_hit 0
Core_0_L1D_prefetch_miss 0
Core_0_L1D_writebacks 0
Core_0_L1D_writeback_hit 0
Core_0_L1D_writeback_miss 0
Core_0_L1D_prefetch_requested 0
Core_0_L1D_prefetch_dropped 0
Core_0_L1D_prefetch_issued 0
Core_0_L1D_prefetch_filled 0
Core_0_L1D_prefetch_useful 0
Core_0_L1D_prefetch_useless 0
Core_0_L1D_prefetch_late 0
Core_0_L1D_average_miss_latency 2220.60346

Core_0_L1D_rq_access 125889942
Core_0_L1D_rq_forward 0
Core_0_L1D_rq_merged 35590145
Core_0_L1D_rq_to_cache 90299234
Core_0_L1D_rq_full 0

Core_0_L1D_wq_access 70505122
Core_0_L1D_wq_forward 563
Core_0_L1D_wq_merged 423596
Core_0_L1D_wq_to_cache 70081526
Core_0_L1D_wq_full 306922293

Core_0_L1D_pq_access 0
Core_0_L1D_pq_forward 0
Core_0_L1D_pq_merged 0
Core_0_L1D_pq_to_cache 0
Core_0_L1D_pq_full 0

Core_0_L1D_acc_epochs 1675132
Core_0_L1D_acc_level_0 1675132
Core_0_L1D_acc_level_1 0
Core_0_L1D_acc_level_2 0
Core_0_L1D_acc_level_3 0
Core_0_L1D_acc_level_4 0
Core_0_L1D_acc_level_5 0
Core_0_L1D_acc_level_6 0
Core_0_L1D_acc_level_7 0
Core_0_L1D_acc_level_8 0
Core_0_L1D_acc_level_9 0

Core_0_L1I_total_access 99475468
Core_0_L1I_total_hit 97530534
Core_0_L1I_total_miss 1944934
Core_0_L1I_loads 99475468
Core_0_L1I_load_hit 97530534
Core_0_L1I_load_miss 1944934
Core_0_L1I_RFOs 0
Core_0_L1I_RFO_hit 0
Core_0_L1I_RFO_miss 0
Core_0_L1I_prefetches 0
Core_0_L1I_prefetch_hit 0
Core_0_L1I_prefetch_miss 0
Core_0_L1I_writebacks 0
Core_0_L1I_writeback_hit 0
Core_0_L1I_writeback_miss 0
Core_0_L1I_prefetch_requested 0
Core_0_L1I_prefetch_dropped 0
Core_0_L1I_prefetch_issued 0
Core_0_L1I_prefetch_filled 0
Core_0_L1I_prefetch_useful 0
Core_0_L1I_prefetch_useless 0
Core_0_L1I_prefetch_late 0
Core_0_L1I_average_miss_latency 14.00722

Core_0_L1I_rq_access 499999934
Core_0_L1I_rq_forward 0
Core_0_L1I_rq_merged 399808641
Core_0_L1I_rq_to_cache 100191293
Core_0_L1I_rq_full 0

Core_0_L1I_wq_access 0
Core_0_L1I_wq_forward 0
Core_0_L1I_wq_merged 0
Core_0_L1I_wq_to_cache 0
Core_0_L1I_wq_full 0

Core_0_L1I_pq_access 0
Core_0_L1I_pq_forward 0
Core_0_L1I_pq_merged 0
Core_0_L1I_pq_to_cache 0
Core_0_L1I_pq_full 0

Core_0_L1I_acc_epochs 1675132
Core_0_L1I_acc_level_0 1675132
Core_0_L1I_acc_level_1 0
Core_0_L1I_acc_level_2 0
Core_0_L1I_acc_level_3 0
Core_0_L1I_acc_level_4 0
Core_0_L1I_acc_level_5 0
Core_0_L1I_acc_level_6 0
Core_0_L1I_acc_level_7 0
Core_0_L1I_acc_level_8 0
Core_0_L1I_acc_level_9 0

Core_0_L2C_total_access 6064171
Core_0_L2C_total_hit 4701123
Core_0_L2C_total_miss 1363048
Core_0_L2C_loads 2774434
Core_0_L2C_load_hit 2328012
Core_0_L2C_load_miss 446422
Core_0_L2C_RFOs 1486052
Core_0_L2C_RFO_hit 609110
Core_0_L2C_RFO_miss 876942
Core_0_L2C_prefetches 49509
Core_0_L2C_prefetch_hit 12044
Core_0_L2C_prefetch_miss 37465
Core_0_L2C_writebacks 1754176
Core_0_L2C_writeback_hit 1751957
Core_0_L2C_writeback_miss 2219
Core_0_L2C_prefetch_requested 319047
Core_0_L2C_prefetch_dropped 0
Core_0_L2C_prefetch_issued 319047
Core_0_L2C_prefetch_filled 44231
Core_0_L2C_prefetch_useful 14457
Core_0_L2C_prefetch_useless 29774
Core_0_L2C_prefetch_late 1989
Core_0_L2C_average_miss_latency 3777.63046

Core_0_L2C_rq_access 4260552
Core_0_L2C_rq_forward 0
Core_0_L2C_rq_merged 0
Core_0_L2C_rq_to_cache 4260486
Core_0_L2C_rq_full 0

Core_0_L2C_wq_access 1754176
Core_0_L2C_wq_forward 66
Core_0_L2C_wq_merged 0
Core_0_L2C_wq_to_cache 1754176
Core_0_L2C_wq_full 0

Core_0_L2C_pq_access 319047
Core_0_L2C_pq_forward 0
Core_0_L2C_pq_merged 771
Core_0_L2C_pq_to_cache 318276
Core_0_L2C_pq_full 0

Core_0_L2C_acc_epochs 1675132
Core_0_L2C_acc_level_0 1664439
Core_0_L2C_acc_level_1 4065
Core_0_L2C_acc_level_2 2905
Core_0_L2C_acc_level_3 553
Core_0_L2C_acc_level_4 187
Core_0_L2C_acc_level_5 1923
Core_0_L2C_acc_level_6 189
Core_0_L2C_acc_level_7 203
Core_0_L2C_acc_level_8 109
Core_0_L2C_acc_level_9 559

Core_0_LLC_total_access 2554714
Core_0_LLC_total_hit 884154
Core_0_LLC_total_miss 1670560
Core_0_LLC_loads 444438
Core_0_LLC_load_hit 365293
Core_0_LLC_load_miss 79145
Core_0_LLC_RFOs 876940
Core_0_LLC_RFO_hit 124688
Core_0_LLC_RFO_miss 752252
Core_0_LLC_prefetches 207803
Core_0_LLC_prefetch_hit 42775
Core_0_LLC_prefetch_miss 165028
Core_0_LLC_writebacks 1025533
Core_0_LLC_writeback_hit 351398
Core_0_LLC_writeback_miss 674135
Core_0_LLC_prefetch_requested 0
Core_0_LLC_prefetch_dropped 0
Core_0_LLC_prefetch_issued 0
Core_0_LLC_prefetch_filled 246328
Core_0_LLC_prefetch_useful 64545
Core_0_LLC_prefetch_useless 175940
Core_0_LLC_prefetch_late 1983
Core_0_LLC_average_miss_latency 3158.17501

Core_0_LLC_rq_access 1321379
Core_0_LLC_rq_forward 0
Core_0_LLC_rq_merged 0
Core_0_LLC_rq_to_cache 1321378
Core_0_LLC_rq_full 0

Core_0_LLC_wq_access 1025533
Core_0_LLC_wq_forward 1
Core_0_LLC_wq_merged 0
Core_0_LLC_wq_to_cache 1025533
Core_0_LLC_wq_full 0

Core_0_LLC_pq_access 301007
Core_0_LLC_pq_forward 0
Core_0_LLC_pq_merged 99
Core_0_LLC_pq_to_cache 300908
Core_0_LLC_pq_full 0

Core_0_LLC_acc_epochs 1677386
Core_0_LLC_acc_level_0 1609138
Core_0_LLC_acc_level_1 27596
Core_0_LLC_acc_level_2 20346
Core_0_LLC_acc_level_3 1461
Core_0_LLC_acc_level_4 201
Core_0_LLC_acc_level_5 15120
Core_0_LLC_acc_level_6 231
Core_0_LLC_acc_level_7 377
Core_0_LLC_acc_level_8 84
Core_0_LLC_acc_level_9 2832

Core_0_major_page_fault 0
Core_0_minor_page_fault 6639

[MLOP] History of tracked zone:
IIIIIIIIIIIIIIIIIIIIIIIIIIIIIIIIIIIIIIIIIIIIIIIIIIIIIIIIIIIIIIII
IIIIIIIIIIIIIIIIIIIIIIIIIIIIIIIIIIIIIIIIIIIIIIIIAII2II4I44I4II4I
IIIIIIIIIIIIIIIIIIIIIIIIIIIIIIIIIIIIIIIIIIIIIIIIAII2II4I44IAII2I
IIIIIIIIIIIIIIIIIIIIIIIIIIIIIIIIIIIIIIIIIIIIIIIIAII2II4I44IAIA2I
IIIIIIIIIIIIIIIIIIIIIIIIIIIIIIIIIIIIIIIIIIIIIIIIAII2II4I44IAAA22
IIIIIIIIIIIIIIIIIIIIIIIIIIIIIIIIIIIIIIIIIIIIIIIIAII2II4I44AAAA22
IIIIIIIIIIIIIIIIIIIIIIIIIIIIIIIIIIIIIIIIIIIIIIIIAII2A44444AAAA22
IIIIIIIIIIIIIIIIIIIIIIIIIIIIIIIIIIIIIIIIIIIIIIIIA4I2A44444AAAA22
IIIIIIIIIIIIIIIIIIIIIIIIIIIIIIIIIIIIIIIIIIIIIIIIA4I2A4A444AAAA22
IIIIIIIIIIIIIIIIIIIIIIIIIIIIIIIIIIIIIIIIIIIIIIIIA4I2A4AA44AAAA22
IIIIIIIIIIIIIIIIIIIIIIIIIIIIIIIIIIIIIIIIIIIIIIIIA4I2A4AAA4AAAA22
IIIIIIIIIIIIIIIIIIIIIIIIIIIIIIIIIIIIIIIIIIIIIIIIA4I2A2AAA4AAAA22
IIIIIIIIIIIIIIIIIIIIIIIIIIIIIIIIIIIIIIIIIIIIIIIIA4I2A2AAA4AAAI22
IIIIIIIIIIIIIIIIIIIIIIIIIIIIIIIIIIIIIIIIIIIIIIIIA4I2A2AAA4AAAA22
IIIIIIIIIIIIIIIIIIIIIIIIIIIIIIIIIIIIIIIIIIIIIIIIA4I2A2AAA4AAAAI2
IIIIIIIIIIIIIIIIIIIIIIIIIIIIIIIIIIIIIIIIIIIIIIIIA4I2AAAAA4AAAA42
IIIIIIIIIIIIIIIIIIIIIIIIIIIIIIIIIIIIIIIIIIIIIIIIA4I2AAAAA4AAAA4I
IIIIIIIIIIIIIIIIIIIIIIIIIIIIIIIIIIIIIIIIIIIIIIIIA4I2AAAAA4AAAA44
IIIIIIIIIIIIIIIIIIIIIIIIIIIIIIIIIIIIIIIIIIIIIIIIA4IAAAAAA4AAAA44
IIIIIIIIIIIIIIIIIIIIIIIIIIIIIIIIIIIIIIIIIIIIIIIIA4IAAAAAA4AAAA24
IIIIIIIIIIIIIIIIIIIIIIIIIIIIIIIIIIIIIIIIIIIIIIIIA4IAAAAAA2AAAA24
IIIIIIIIIIIIIIIIIIIIIIIIIIIIIIIIIIIIIIIIIIIIIIIIA4IAAAAAA2AAAAA2
IIIIIIIIIIIIIIIIIIIIIIIIIIIIIIIIIIIIIIIIIIIIIIIIA4IAAAAAA2AAAAAA
IIIIIIIIIIIIIIIIIIIIIIIIIIIIIIIIIIIIIIIIIIIIIIIIA44AAAAAA2AAAAAA
IIIIIIIIIIIIIIIIIIIIIIIIIIIIIIIIIIIIIIIIIIIIIIIIA44AAAAAA2AIAAAA
IIIIIIIIIIIIIIIIIIIIIIIIIIIIIIIIIIIIIIIIIIIIIIIIA44AAAAAA2AIAIAA
IIIIIIIIIIIIIIIIIIIIIIIIIIIIIIIIIIIIIIIIIIIIIIIIA44AAAAAA2IIAIAA
IIIIIIIIIIIIIIIIIIIIIIIIIIIIIIIIIIIIIIIIIIIIIIIII44AAAAAA2IIAIAA
IIIIIIIIIIIIIIIIIIIIIIIIIIIIIIIIIIIIIIIIIIIIIIIII44AAAAAA2IIAIIA
IIIIIIIIIIIIIIIIIIIIIIIIIIIIIIIIIIIIIIIIIIIIIIIIA44AAAAAA244AIIA
IIIIIIIIIIIIIIIIIIIIIIIIIIIIIIIIIIIIIIIIIIIIIIIIA44AAAAAA244AIAA
IIIIIIIIIIIIIIIIIIIIIIIIIIIIIIIIIIIIIIIIIIIIIIIIA44AAAAAA244A4AA
IIIIIIIIIIIIIIIIIIIIIIIIIIIIIIIIIIIIIIIIIIIIIIIIA44AAAAAA2A4A4AA
IIIIIIIIIIIIIIIIIIIIIIIIIIIIIIIIIIIIIIIIIIIIIIIIA44AAAAAA2AAA4AA
IIIIIIIIIIIIIIIIIIIIIIIIIIIIIIIIIIIIIIIIIIIIIIIIA44AAAAAA2AAAAAA
IIIIIIIIIIIIIIIIIIIIIIIIIIIIIIIIIIIIIIIIIIIIIIIIA44AAAAAAAAAAAAA
IIIIIIIIIIIIIIIIIIIIIIIIIIIIIIIIIIII4III44III4I4A44AAAAAAAAAAAAA
IIIIIIIIIIIIIIIIIIIIIIIIIIIIIIIIIIII44II444II444A44AAAAAAAAAAAAA
IIIIIIIIIIIIIIIIIIIIIIIIII4III44III444II44444444A44AAAAAAAAAAAAA
IIIIIIIIIIIIIIIIIIIIIIIIII44II444II4444I44444444A44AAAAAAAAAAAAA
IIIIIIIIIIIIIIIIIIIIIIIIII444I4444I4444444444444A44AAAAAAAAAAAAA
IIIIIIIIIIIIIIIIIIIIIIIIII4444444444444444444444A44AAAAAAAAAAAAA
IIIIIIIIIIIIIIIIIIIIIIIIII4444444444444444444444A4IAAAAAAAAAAAAA
IIIIIIIIIIIIIIIIIIIIIIIIII4444444444444444444444A44AAAAAAAAAAAAA
IIIIIIIIIIIIIIIIIIIIII4III4444444444444444444444A24AAAAAAAAAAAAA
IIIIIIIIIIIIIIIIIIIIII4II44444444444444444444444A24AAAAAAAAAAAAA
IIIIIIIIIIIIIIIIIIIIII4II44444444444444444444444A24AAAAAIAAAAAAA
IIIIIIIIIIIIIIIIIIIIII4II44444444444444444444444I24AAAAAIAAAAAAA
IIIIIIIIIIIIIIIIIIIIII4II44444444444444444444444I24AAAAA4AAAAAAA
IIIIIIIIIIIIIIIIIIIIII4II44444444444444444444444I24AAAAAAAAAAAAA
IIIIIIIIIIIIIIIIIIIIII4II44444444444444444444444A24AAAAAAAAAAAAA
IIIIIIIIIIIIIIIIIIIIII4II44444444444444444444444A2AAAAAAAAAAAAAA
IIIIIIIIIIIIIIIIIIIIII4II44444444444444444444444A2AAIAAAAAAAAAAA
IIIIIIIIIIIIIIIIIIIIII4II44444444444444444444444A2AAIAAAIAAAAAAA
IIIIIIIIIIIIIIIIIIIIII4II44444444444444444444444A2AAAAAAIAAAAAAA
IIIIIIIIIIIIIIIIIIIIII4II44444444444444444444444A2AAAAAA2AAAAAAA
IIIIIIIIIIIIIIIIIIIIII4II44444444444444444444444A2AAAAAAIAAAAAAA
IIIIIIIIIIIIIIIIIIIIII4II44444444444444444444444A2AAAAAA4AAAAAAA
IIIIIIIIIIIIIIIIIIIIII4II44444444444444444444444A2AAAAAAAAAAAAAA
IIIIIIIIIIIIIIIIIIIIII4II44444444444444444444444A2AAAAAAAAAAAAIA
IIIIIIIIIIIIIIIIIIIIII4II44444444444444444444444A2AAAAAAAAAAAA4A
IIIIIIIIIIIIIIIIIIIIII4II44444444444444444444444I2AAAAAAAAAAAA4A
IIIIIIIIIIIIIIIIIIIIII4II44444444444444444444444I2AIAAAAAAAAAA4A
IIIIIIIIIIIIIIIIIIIIII4II44444444444444444444444I2AIAAAAAAIAAA4A
IIIIIIIIIIIIIIIIIIIIII4II44444444444444444444444I2AIAAAAAA4AAA4A
IIIIIIIIIIIIIIIIIIIIII4II4444444444444444444444442AIAAAAAA4AAA4A
IIIIIIIIIIIIIIIIIIIIII4II4444444444444444444444442AAAAAAAA4AAA4A
IIIIIIIIIIIIIIIIIIIIII4II4444444444444444444444442AAAAAAAAAAAA4A
IIIIIIIIIIIIIIIIIIIIII4II44444444444444444444444A2AAAAAAAAAAAA4A
IIIIIIIIIIIIIIIIIIIIII4II44444444444444444444444A2AAAAAAAAAAAAAA
IIIIIIIIIIIIIIIIIIIIII4II44444444444444444444444A2AAAAIAAAAAAAAA
IIIIIIIIIIIIIIIIIIIIII4II44444444444444444444444A2AAAAIIAAAAAAAA
IIIIIIIIIIIIIIIIIIIIII4II44444444444444444444444I2AAAAIIAAAAAAAA
IIIIIIIIIIIIIIIIIIIIII4II44444444444444444444444I2AAAAIIAAAAAIAA
IIIIIIIIIIIIIIIIIIIIII4II44444444444444444444444I2AAIAIIAAAAAIAA
IIIIIIIIIIIIIIIIIIIIII4II44444444444444444444444I2AAIAIIIAAAAIAA
IIIIIIIIIIIIIIIIIIIIII4II44444444444444444444444I2AAIAIIIAAAA2AA
IIIIIIIIIIIIIIIIIIIIII4II44444444444444444444444I2AAIAII4AAAA2AA
IIIIIIIIIIIIIIIIIIIIII4II44444444444444444444444I2AAIAIA4AAAA2AA
IIIIIIIIIIIIIIIIIIIIII4II44444444444444444444444I2AAIAIAAAAAA2AA
IIIIIIIIIIIIIIIIIIIIII4II44444444444444444444444I2AAIAIAAAAAAAAA
IIIIIIIIIIIIIIIIIIIIII4II44444444444444444444444I2AAIA4AAAAAAAAA
IIIIIIIIIIIIIIIIIIIIII4II44444444444444444444444A2AAIA4AAAAAAAAA
IIIIIIIIIIIIIIIIIIIIII4II44444444444444444444444A2AAAA4AAAAAAAAA
IIIIIIIIIIIIIIIIIIIIII4II44444444444444444444444A2AAAAAAAAAAAAAA
IIIIIIIIIIIIIIIIIIIIII4II44444444444444444444444A2AAAAAAAAAAAAIA
IIIIIIIIIIIIIIIIIIIIII4II44444444444444444444444A2AAAAAAAAAAAA2A
IIIIIIIIIIIIIIIIIIIIII4II44444444444444444444444A2IAAAAAAAAAAA2A
IIIIIIIIIIIIIIIIIIIIII4II44444444444444444444444A2IAAAAAAAAAAAAA
IIIIIIIIIIIIIIIIIIIIII4II44444444444444444444444A24AAAAAAAAAAAAA
IIIIIIIIIIIIIIIIIIIIII4II44444444444444444444444A24AAAAAAAAAIAAA
IIIIIIIIIIIIIIIIIIIIII4II44444444444444444444444A24AAAAAAAAA2AAA
IIIIIIIIIIIIIIIIIIIIII4II44444444444444444444444A24AAAAIAAAA2AAA
IIIIIIIIIIIIIIIIIIIIII4II44444444444444444444444A24AAAA2AAAA2AAA
IIIIIIIIIIIIIIIIIIIIII4II44444444444444444444444A24AAAA2AAAAAAAA
IIIIIIIIIIIIIIIIIIIIII4II44444444444444444444444A24AAAAAAAAAAAAA
IIIIIIIIIIIIIIIIIIIIII4II44444444444444444444444A24AAIAAAAAAAAAA
IIIIIIIIIIIIIIIIIIIIII4II44444444444444444444444A2IAAIAAAAAAAAAA
IIIIIIIIIIIIIIIIIIIIII4II44444444444444444444444A2IAAIAAAAAAAAAI
IIIIIIIIIIIIIIIIIIIIII4II44444444444444444444444A2IAAAAAAAAAAAAI
IIIIIIIIIIIIIIIIIIIIII4II44444444444444444444444A2IAAAAAAAAAAAA4
IIIIIIIIIIIIIIIIIIIIII4II44444444444444444444444A2IAAAAAAAAAAAA2
IIIIIIIIIIIIIIIIIIIIII4II44444444444444444444444A2IAAAAAAAAAAIA2
IIIIIIIIIIIIIIIIIIIIII4II44444444444444444444444A2IAAAAAAAAAA4A2
IIIIIIIIIIIIIIIIIIIIII4II44444444444444444444444A2IAAAAAAAAAA2A2
IIIIIIIIIIIIIIIIIIIIII4II44444444444444444444444A2IAAAAAAAAAAAA2
IIIIIIIIIIIIIIIIIIIIII4II44444444444444444444444A2IAAAAAAAAAAAAA
IIIIIIIIIIIIIIIIIIIIII4II44444444444444444444444A2IAAAAAAAAAAAAI
IIIIIIIIIIIIIIIIIIIIII4II44444444444444444444444A2IAAAAIAAAAAAAI
IIIIIIIIIIIIIIIIIIIIII4II44444444444444444444444A2IAAAAIAAAAIAAI
IIIIIIIIIIIIIIIIIIIIII4II44444444444444444444444I2IAAAAIAAAAIAAI
IIIIIIIIIIIIIIIIIIIIII4II44444444444444444444444A2IAAAAIAAAAIAA4
IIIIIIIIIIIIIIIIIIIIII4II44444444444444444444444A2IAAAAIAAAA2AA4
IIIIIIIIIIIIIIIIIIIIII4II44444444444444444444444A2IAAAAAAAAA2AA4
IIIIIIIIIIIIIIIIIIIIII4II44444444444444444444444A2IAAAAAAAAA2AA2
IIIIIIIIIIIIIIIIIIIIII4II44444444444444444444444A2IAAAIAAAAA2AA2
IIIIIIIIIIIIIIIIIIIIII4II44444444444444444444444A2IAAAIAAAAAAAA2
IIIIIIIIIIIIIIIIIIIIII4II44444444444444444444444A2IAAAAAAAAAAAA2
IIIIIIIIIIIIIIIIIIIIII4II44444444444444444444444A22AAAAAAAAAAAA2
IIIIIIIIIIIIIIIIIIIIII4II44444444444444444444444A22AAAAAAAAAIAA2
IIIIIIIIIIIIIIIIIIIIII4II44444444444444444444444I22AAAAAAAAAIAA2
IIIIIIIIIIIIIIIIIIIIII4II44444444444444444444444I22AAAAAAAAA2AA2
IIIIIIIIIIIIIIIIIIIIII4II44444444444444444444444I22AAAAAAAAAAAA2
IIIIIIIIIIIIIIIIIIIIII4II44444444444444444444444I22AAAAAAAAAAAAA
IIIIIIIIIIIIIIIIIIIIII4II44444444444444444444444A22AAAAAAAAAAAAA
IIIIIIIIIIIIIIIIIIIIII4II44444444444444444444444A22AAAAAAIAAAAAA
IIIIIIIIIIIIIIIIIIIIII4II44444444444444444444444A22AAAAAAIAAIAAA
IIIIIIIIIIIIIIIIIIIIII4II44444444444444444444444A2IAAAAAAIAAIAAA
IIIIIIIIIIIIIIIIIIIIII4II44444444444444444444444A2IAAAAAA4AAIAAA
IIIIIIIIIIIIIIIIIIIIII4II44444444444444444444444A24AAAAAA4AAIAAA
IIIIIIIIIIIIIIIIIIIIII4II44444444444444444444444A24AAAAAA4AA4AAA
IIIIIIIIIIIIIIIIIIIIII4II44444444444444444444444A24AAAAAAAAA4AAA
IIIIIIIIIIIIIIIIIIIIII4II44444444444444444444444A2AAAAAAAAAA4AAA
IIIIIIIIIIIIIIIIIIIIII4II44444444444444444444444A2AAAAAAAAAA2AAA
IIIIIIIIIIIIIIIIIIIIII4II44444444444444444444444A2AAAAAAAAAAAAAA
IIIIIIIIIIIIIIIIIIIIII4II44444444444444444444444A2AAAAAAAAAAAAAI
IIIIIIIIIIIIIIIIIIIIII4II44444444444444444444444A2AAAAAAAAAAAAII
IIIIIIIIIIIIIIIIIIIIII4II44444444444444444444444A2AAAAAAAAAAAA44
IIIIIIIIIIIIIIIIIIIIII4II44444444444444444444444A2AAAAAAAAAAAA22
IIIIIIIIIIIIIIIIIIIIII4II44444444444444444444444A2AAAAAAAAAAAAA2
IIIIIIIIIIIIIIIIIIIIII4II44444444444444444444444A2AAAAAAAAAAAAAA
IIIIIIIIIIIIIIIIIIIIII4II44444444444444444444444A2AAIAAAAAAAAAAA
IIIIIIIIIIIIIIIIIIIIII4II44444444444444444444444A2AAIIAAAAAAAAAA
IIIIIIIIIIIIIIIIIIIIII4II44444444444444444444444A2AAIIAAAAAAAIAA
IIIIIIIIIIIIIIIIIIIIII4II44444444444444444444444A2AIIIAAAAAAAIAA
IIIIIIIIIIIIIIIIIIIIII4II44444444444444444444444A2AA4IAAAAAAAIAA
IIIIIIIIIIIIIIIIIIIIII4II44444444444444444444444A2AA44AAAAAAAIAA
IIIIIIIIIIIIIIIIIIIIII4II44444444444444444444444A2AAA4AAAAAAAIAA
IIIIIIIIIIIIIIIIIIIIII4II44444444444444444444444A2AAA4AAAAAAA4AA
IIIIIIIIIIIIIIIIIIIIII4II44444444444444444444444A2AAAAAAAAAAA4AA
IIIIIIIIIIIIIIIIIIIIII4II44444444444444444444444A2AAAAAAAAAAAAAA
IIIIIIIIIIIIIIIIIIIIII4II44444444444444444444444A2IAAAAAAAAAAAAA
IIIIIIIIIIIIIIIIIIIIII4II44444444444444444444444A2IAAAAAIAAAAAAA
IIIIIIIIIIIIIIIIIIIIII4II44444444444444444444444A2IAAAAAIAAAAIAA
IIIIIIIIIIIIIIIIIIIIII4II44444444444444444444444A2IAAIAAIAAAAIAA
IIIIIIIIIIIIIIIIIIIIII4II44444444444444444444444A2IAA2AAIAAAAIAA
IIIIIIIIIIIIIIIIIIIIII4II44444444444444444444444A2AAA2AA2AAAA4AA
IIIIIIIIIIIIIIIIIIIIII4II44444444444444444444444A2AAA2AA2AAAA2AA
IIIIIIIIIIIIIIIIIIIIII4II44444444444444444444444A2AAA2AAAAAAA2AA
IIIIIIIIIIIIIIIIIIIIII4II44444444444444444444444A2AAAAAAAAAAA2AA
IIIIIIIIIIIIIIIIIIIIII4II44444444444444444444444A2AAAAAAAAAAA2AI
IIIIIIIIIIIIIIIIIIIIII4II44444444444444444444444A2AAAAAAAAAAA2A4
IIIIIIIIIIIIIIIIIIIIII4II44444444444444444444444A2AAAAAAAAAAA2A2
IIIIIIIIIIIIIIIIIIIIII4II44444444444444444444444A2AAAAAAAAAAAAA2
IIIIIIIIIIIIIIIIIIIIII4II44444444444444444444444A2AAAAIAAAAAAAA2
IIIIIIIIIIIIIIIIIIIIII4II44444444444444444444444A2AAAA4AAAAAAAA2
IIIIIIIIIIIIIIIIIIIIII4II44444444444444444444444A2AAAA4AAAAAAAAA
IIIIIIIIIIIIIIIIIIIIII4II44444444444444444444444A2AAAAAAAAAAAAAA
IIIIIIIIIIIIIIIIIIIIII4II44444444444444444444444I2AAAAAAAAAAAAAA
IIIIIIIIIIIIIIIIIIIIII4II44444444444444444444444A2AAAAAAAAAAAAAA
IIIIIIIIIIIIIIIIIIIIII4II44444444444444444444444A2AAAAAAAAAAAAIA
IIIIIIIIIIIIIIIIIIIIII4II44444444444444444444444A2AAAAAAAAAAAAII
IIIIIIIIIIIIIIIIIIIIII4II44444444444444444444444A2AAAAAAAAAAAA22
IIIIIIIIIIIIIIIIIIIIII4II44444444444444444444444A2AAAAAAAAAAAAA2
IIIIIIIIIIIIIIIIIIIIII4II44444444444444444444444A2AAAAAAAAAAAAAA
IIIIIIIIIIIIIIIIIIIIII4II44444444444444444444444I2AAAAAAAAAAAAAA
IIIIIIIIIIIIIIIIIIIIII4II44444444444444444444444A2AAAAAAAAAAAAAA
IIIIIIIIIIIIIIIIIIIIII4II44444444444444444444444A2IAAAAAAAAAAAAA
IIIIIIIIIIIIIIIIIIIIII4II44444444444444444444444A22AAAAAAAAAAAAA
IIIIIIIIIIIIIIIIIIIIII4II44444444444444444444444A2AAAAAAAAAAAAAA
IIIIIIIIIIIIIIIIIIIIII4II44444444444444444444444A2AAAAAIAAAAAAAA
IIIIIIIIIIIIIIIIIIIIII4II44444444444444444444444A2AAAAAIAAIAAAAA
IIIIIIIIIIIIIIIIIIIIII4II44444444444444444444444A2AAAAAIAA2AAAAA
IIIIIIIIIIIIIIIIIIIIII4II44444444444444444444444A2AAAAAAAA2AAAAA
IIIIIIIIIIIIIIIIIIIIII4II44444444444444444444444A2AAAAAAAAAAAAAA
IIIIIIIIIIIIIIIIIIIIII4II44444444444444444444444A2AAAAAAAAAAAAIA
IIIIIIIIIIIIIIIIIIIIII4II44444444444444444444444A2AAAAAAAAAAAA2A
IIIIIIIIIIIIIIIIIIIIII4II44444444444444444444444A2AAAAAAAAAAAA2I
IIIIIIIIIIIIIIIIIIIIII4II44444444444444444444444A2AAAAAAAAAAAA22
IIIIIIIIIIIIIIIIIIIIII4II44444444444444444444444A2AAAAAAAAAAAAA2
IIIIIIIIIIIIIIIIIIIIII4II44444444444444444444444A2AAAAAAAAAAAAAA
IIIIIIIIIIIIIIIIIIIIII4II44444444444444444444444A2AAAAAAAAAAAAAI
IIIIIIIIIIIIIIIIIIIIII4II44444444444444444444444A2AAAAAAAAAAAAA4
IIIIIIIIIIIIIIIIIIIIII4II44444444444444444444444A2AAAAAAAAAAAAAA
IIIIIIIIIIIIIIIIIIIIII4II44444444444444444444444A2AAAAAAAAAAAAIA
IIIIIIIIIIIIIIIIIIIIII4II44444444444444444444444A2AAAAAAAAAAAA2A
IIIIIIIIIIIIIIIIIIIIII4II44444444444444444444444A2AAAAAAAAAAAAAA
IIIIIIIIIIIIIIIIIIIIII4II44444444444444444444444A2AAAAAAAAAAAIAA
IIIIIIIIIIIIIIIIIIIIII4II44444444444444444444444A2AAAAAAAAAAA2AA
IIIIIIIIIIIIIIIIIIIIII4II44444444444444444444444A2AAAAAAAAAAAAAA
[MLOP] Prefetch Degree Mean: 6.84615
[MLOP] Prefetch Degree SD: 3.29560
[MLOP] Max Score Left Mean (%): 31.98910
[MLOP] Max Score Left SD (%): 13.77165
[MLOP] Max Score Right Mean (%): 59.81474
[MLOP] Max Score Right SD (%): 16.48524

Channel_0_RQ_row_buffer_hit 176190
Channel_0_RQ_row_buffer_miss 820231
Channel_0_WQ_row_buffer_hit 87005
Channel_0_WQ_row_buffer_miss 770857
Channel_0_WQ_full 0
Channel_0_dbus_congested 1849785

avg_congested_cycle 193

DRAM_bw_pochs 6709542
DRAM_bw_level_0 5833105
DRAM_bw_level_1 0
DRAM_bw_level_2 0
DRAM_bw_level_3 876437
