*************************************************
   ChampSim Multicore Out-of-Order Simulator
   Last compiled: Dec 11 2024 17:59:53
*************************************************
parsing config file: /home/functionmain/桌面/Pythia/config/mlop.ini

trace_0 /home/functionmain/桌面/Pythia/traces/445.gobmk-30B.champsimtrace.xz
adding L2C_PREFETCHER: MLOP
Initialize SHIP state
warmup_instructions 100000000
simulation_instructions 500000000
champsim_seed 165
measure_ipc 0
measure_ipc_epoch 1000
measure_dram_bw 1
measure_dram_bw_epoch 256
measure_cache_acc 1
measure_cache_acc_epoch 1024
l1d_perfect 0
l2c_perfect 0
llc_perfect 0
l1d_semi_perfect 0
l2c_semi_perfect 0
llc_semi_perfect 0
semi_perfect_cache_page_buffer_size 64

num_cpus 1
cpu_freq 4000
dram_io_freq 1200
page_size 4096
block_size 64
max_read_per_cycle 8
max_fill_per_cycle 1
dram_channels 1
log2_dram_channels 0
dram_ranks 1
dram_banks 8
dram_rows 65536
dram_columns 128
dram_row_size 8
dram_size 4096
dram_pages 1048576

fetch_width 6
decode_width 6
exec_width 4
lq_width 2
sq_width 2
retire_width 4
scheduler_size 128
branch_mispredict_penalty 20
rob_size 256
lq_size 72
sq_size 56
num_instr_destinations_sparc 4
num_instr_destinations 2
num_instr_sources 4

itlb_set 16
itlb_way 8
itlb_rq_size 16
itlb_wq_size 16
itlb_pq_size 0
itlb_mshr_size 8
itlb_latency 1

dtlb_set 16
dtlb_way 4
dtlb_rq_size 16
dtlb_wq_size 16
dtlb_pq_size 0
dtlb_mshr_size 8
dtlb_latency 1

stlb_set 128
stlb_way 12
stlb_rq_size 32
stlb_wq_size 32
stlb_pq_size 0
stlb_mshr_size 16
stlb_latency 8

l1i_size 32
l1i_set 64
l1i_way 8
l1i_rq_size 64
l1i_wq_size 64
l1i_pq_size 8
l1i_mshr_size 8
l1i_latency 1

l1d_size 32
l1d_set 64
l1d_way 8
l1d_rq_size 64
l1d_wq_size 64
l1d_pq_size 8
l1d_mshr_size 16
l1d_latency 4

l2c_size 256
l2c_set 512
l2c_way 8
l2c_rq_size 32
l2c_wq_size 32
l2c_pq_size 32
l2c_mshr_size 32
l2c_latency 10

llc_size 2048
llc_set 2048
llc_way 16
llc_rq_size 32
llc_wq_size 32
llc_pq_size 32
llc_mshr_size 64
llc_latency 20

dram_channel_width 8
dram_wq_size 64
dram_rq_size 64
tRP 15
tRCD 15
tCAS 12.5
dram_dbus_turn_around_time 30
dram_write_high_wm 56
dram_write_low_wm 48
min_dram_writes_per_switch 16
dram_mtps 1200
dram_dbus_return_time 26

mlop_pref_degree 16
mlop_num_updates 500
mlop_l1d_thresh 2
mlop_l2c_thresh 0.75
mlop_llc_thresh 0.3
mlop_debug_level 0
mlop_blocks_in_cache 4096
mlop_blocks_in_zone 64
mlop_amt_size 2048
mlop_PF_DEGREE 16
mlop_NUM_UPDATES 500
mlop_L1D_THRESH 1000
mlop_L2C_THRESH 375
mlop_LLC_THRESH 150
mlop_ORIGIN 63
mlop_MAX_OFFSET 63
mlop_MIN_OFFSET -63
mlop_ORIGIN 63
mlop_NUM_OFFSETS 127


Heartbeat CPU  0 instructions:    1000000 cycles:     861996 heartbeat IPC: 1.16010 cumulative IPC: 1.16010 (Simulation time: 0 hr 0 min 1 sec) 
Heartbeat CPU  0 instructions:    2000000 cycles:    1864456 heartbeat IPC: 0.99755 cumulative IPC: 1.07270 (Simulation time: 0 hr 0 min 2 sec) 
Heartbeat CPU  0 instructions:    3000001 cycles:    2990060 heartbeat IPC: 0.88841 cumulative IPC: 1.00332 (Simulation time: 0 hr 0 min 3 sec) 
Heartbeat CPU  0 instructions:    4000000 cycles:    4090835 heartbeat IPC: 0.90845 cumulative IPC: 0.97780 (Simulation time: 0 hr 0 min 4 sec) 
Heartbeat CPU  0 instructions:    5000001 cycles:    5173126 heartbeat IPC: 0.92397 cumulative IPC: 0.96653 (Simulation time: 0 hr 0 min 6 sec) 
Heartbeat CPU  0 instructions:    6000000 cycles:    6295937 heartbeat IPC: 0.89062 cumulative IPC: 0.95300 (Simulation time: 0 hr 0 min 7 sec) 
Heartbeat CPU  0 instructions:    7000001 cycles:    7363127 heartbeat IPC: 0.93704 cumulative IPC: 0.95068 (Simulation time: 0 hr 0 min 8 sec) 
Heartbeat CPU  0 instructions:    8000000 cycles:    8565891 heartbeat IPC: 0.83142 cumulative IPC: 0.93394 (Simulation time: 0 hr 0 min 9 sec) 
Heartbeat CPU  0 instructions:    9000000 cycles:    9685312 heartbeat IPC: 0.89332 cumulative IPC: 0.92924 (Simulation time: 0 hr 0 min 10 sec) 
Heartbeat CPU  0 instructions:   10000003 cycles:   10815081 heartbeat IPC: 0.88514 cumulative IPC: 0.92464 (Simulation time: 0 hr 0 min 11 sec) 
Heartbeat CPU  0 instructions:   11000000 cycles:   11872823 heartbeat IPC: 0.94541 cumulative IPC: 0.92649 (Simulation time: 0 hr 0 min 13 sec) 
Heartbeat CPU  0 instructions:   12000000 cycles:   13017026 heartbeat IPC: 0.87397 cumulative IPC: 0.92187 (Simulation time: 0 hr 0 min 14 sec) 
Heartbeat CPU  0 instructions:   13000001 cycles:   14156478 heartbeat IPC: 0.87762 cumulative IPC: 0.91831 (Simulation time: 0 hr 0 min 15 sec) 
Heartbeat CPU  0 instructions:   14000000 cycles:   15083181 heartbeat IPC: 1.07909 cumulative IPC: 0.92819 (Simulation time: 0 hr 0 min 16 sec) 
Heartbeat CPU  0 instructions:   15000001 cycles:   16047176 heartbeat IPC: 1.03735 cumulative IPC: 0.93474 (Simulation time: 0 hr 0 min 17 sec) 
Heartbeat CPU  0 instructions:   16000000 cycles:   17176191 heartbeat IPC: 0.88573 cumulative IPC: 0.93152 (Simulation time: 0 hr 0 min 18 sec) 
Heartbeat CPU  0 instructions:   17000000 cycles:   18271722 heartbeat IPC: 0.91280 cumulative IPC: 0.93040 (Simulation time: 0 hr 0 min 19 sec) 
Heartbeat CPU  0 instructions:   18000003 cycles:   19388166 heartbeat IPC: 0.89570 cumulative IPC: 0.92840 (Simulation time: 0 hr 0 min 21 sec) 
Heartbeat CPU  0 instructions:   19000001 cycles:   20469336 heartbeat IPC: 0.92492 cumulative IPC: 0.92822 (Simulation time: 0 hr 0 min 22 sec) 
Heartbeat CPU  0 instructions:   20000000 cycles:   21561150 heartbeat IPC: 0.91591 cumulative IPC: 0.92759 (Simulation time: 0 hr 0 min 23 sec) 
Heartbeat CPU  0 instructions:   21000000 cycles:   22753600 heartbeat IPC: 0.83861 cumulative IPC: 0.92293 (Simulation time: 0 hr 0 min 24 sec) 
Heartbeat CPU  0 instructions:   22000003 cycles:   23880968 heartbeat IPC: 0.88702 cumulative IPC: 0.92124 (Simulation time: 0 hr 0 min 25 sec) 
Heartbeat CPU  0 instructions:   23000001 cycles:   24931075 heartbeat IPC: 0.95228 cumulative IPC: 0.92254 (Simulation time: 0 hr 0 min 26 sec) 
Heartbeat CPU  0 instructions:   24000000 cycles:   26047895 heartbeat IPC: 0.89540 cumulative IPC: 0.92138 (Simulation time: 0 hr 0 min 28 sec) 
Heartbeat CPU  0 instructions:   25000000 cycles:   26927137 heartbeat IPC: 1.13734 cumulative IPC: 0.92843 (Simulation time: 0 hr 0 min 29 sec) 
Heartbeat CPU  0 instructions:   26000000 cycles:   27897366 heartbeat IPC: 1.03068 cumulative IPC: 0.93199 (Simulation time: 0 hr 0 min 30 sec) 
Heartbeat CPU  0 instructions:   27000002 cycles:   29000037 heartbeat IPC: 0.90689 cumulative IPC: 0.93103 (Simulation time: 0 hr 0 min 31 sec) 
Heartbeat CPU  0 instructions:   28000000 cycles:   30120743 heartbeat IPC: 0.89229 cumulative IPC: 0.92959 (Simulation time: 0 hr 0 min 32 sec) 
Heartbeat CPU  0 instructions:   29000003 cycles:   31186778 heartbeat IPC: 0.93806 cumulative IPC: 0.92988 (Simulation time: 0 hr 0 min 33 sec) 
Heartbeat CPU  0 instructions:   30000002 cycles:   32279290 heartbeat IPC: 0.91532 cumulative IPC: 0.92939 (Simulation time: 0 hr 0 min 34 sec) 
Heartbeat CPU  0 instructions:   31000003 cycles:   33381677 heartbeat IPC: 0.90712 cumulative IPC: 0.92865 (Simulation time: 0 hr 0 min 36 sec) 
Heartbeat CPU  0 instructions:   32000000 cycles:   34481358 heartbeat IPC: 0.90935 cumulative IPC: 0.92804 (Simulation time: 0 hr 0 min 37 sec) 
Heartbeat CPU  0 instructions:   33000001 cycles:   35468609 heartbeat IPC: 1.01291 cumulative IPC: 0.93040 (Simulation time: 0 hr 0 min 38 sec) 
Heartbeat CPU  0 instructions:   34000001 cycles:   36606510 heartbeat IPC: 0.87881 cumulative IPC: 0.92880 (Simulation time: 0 hr 0 min 39 sec) 
Heartbeat CPU  0 instructions:   35000003 cycles:   37678854 heartbeat IPC: 0.93254 cumulative IPC: 0.92890 (Simulation time: 0 hr 0 min 40 sec) 
Heartbeat CPU  0 instructions:   36000000 cycles:   38870456 heartbeat IPC: 0.83920 cumulative IPC: 0.92615 (Simulation time: 0 hr 0 min 42 sec) 
Heartbeat CPU  0 instructions:   37000002 cycles:   39986474 heartbeat IPC: 0.89604 cumulative IPC: 0.92531 (Simulation time: 0 hr 0 min 43 sec) 
Heartbeat CPU  0 instructions:   38000000 cycles:   41036463 heartbeat IPC: 0.95239 cumulative IPC: 0.92601 (Simulation time: 0 hr 0 min 44 sec) 
Heartbeat CPU  0 instructions:   39000001 cycles:   41930006 heartbeat IPC: 1.11914 cumulative IPC: 0.93012 (Simulation time: 0 hr 0 min 45 sec) 
Heartbeat CPU  0 instructions:   40000000 cycles:   42887896 heartbeat IPC: 1.04396 cumulative IPC: 0.93266 (Simulation time: 0 hr 0 min 46 sec) 
Heartbeat CPU  0 instructions:   41000000 cycles:   43989247 heartbeat IPC: 0.90798 cumulative IPC: 0.93205 (Simulation time: 0 hr 0 min 47 sec) 
Heartbeat CPU  0 instructions:   42000000 cycles:   45114307 heartbeat IPC: 0.88884 cumulative IPC: 0.93097 (Simulation time: 0 hr 0 min 48 sec) 
Heartbeat CPU  0 instructions:   43000003 cycles:   46181918 heartbeat IPC: 0.93667 cumulative IPC: 0.93110 (Simulation time: 0 hr 0 min 50 sec) 
Heartbeat CPU  0 instructions:   44000000 cycles:   47301854 heartbeat IPC: 0.89291 cumulative IPC: 0.93020 (Simulation time: 0 hr 0 min 51 sec) 
Heartbeat CPU  0 instructions:   45000001 cycles:   48335599 heartbeat IPC: 0.96736 cumulative IPC: 0.93099 (Simulation time: 0 hr 0 min 52 sec) 
Heartbeat CPU  0 instructions:   46000000 cycles:   49422036 heartbeat IPC: 0.92044 cumulative IPC: 0.93076 (Simulation time: 0 hr 0 min 53 sec) 
Heartbeat CPU  0 instructions:   47000003 cycles:   50530342 heartbeat IPC: 0.90228 cumulative IPC: 0.93013 (Simulation time: 0 hr 0 min 54 sec) 
Heartbeat CPU  0 instructions:   48000000 cycles:   51499570 heartbeat IPC: 1.03175 cumulative IPC: 0.93205 (Simulation time: 0 hr 0 min 56 sec) 
Heartbeat CPU  0 instructions:   49000000 cycles:   52614124 heartbeat IPC: 0.89722 cumulative IPC: 0.93131 (Simulation time: 0 hr 0 min 57 sec) 
Heartbeat CPU  0 instructions:   50000000 cycles:   53698187 heartbeat IPC: 0.92246 cumulative IPC: 0.93113 (Simulation time: 0 hr 0 min 58 sec) 
Heartbeat CPU  0 instructions:   51000001 cycles:   54765556 heartbeat IPC: 0.93688 cumulative IPC: 0.93124 (Simulation time: 0 hr 0 min 59 sec) 
Heartbeat CPU  0 instructions:   52000000 cycles:   55895261 heartbeat IPC: 0.88519 cumulative IPC: 0.93031 (Simulation time: 0 hr 1 min 0 sec) 
Heartbeat CPU  0 instructions:   53000000 cycles:   57001837 heartbeat IPC: 0.90369 cumulative IPC: 0.92979 (Simulation time: 0 hr 1 min 1 sec) 
Heartbeat CPU  0 instructions:   54000001 cycles:   58198498 heartbeat IPC: 0.83566 cumulative IPC: 0.92786 (Simulation time: 0 hr 1 min 3 sec) 
Heartbeat CPU  0 instructions:   55000002 cycles:   59318191 heartbeat IPC: 0.89310 cumulative IPC: 0.92720 (Simulation time: 0 hr 1 min 4 sec) 
Heartbeat CPU  0 instructions:   56000000 cycles:   60384031 heartbeat IPC: 0.93823 cumulative IPC: 0.92740 (Simulation time: 0 hr 1 min 5 sec) 
Heartbeat CPU  0 instructions:   57000000 cycles:   61472092 heartbeat IPC: 0.91907 cumulative IPC: 0.92725 (Simulation time: 0 hr 1 min 6 sec) 
Heartbeat CPU  0 instructions:   58000001 cycles:   62561381 heartbeat IPC: 0.91803 cumulative IPC: 0.92709 (Simulation time: 0 hr 1 min 7 sec) 
Heartbeat CPU  0 instructions:   59000000 cycles:   63436120 heartbeat IPC: 1.14320 cumulative IPC: 0.93007 (Simulation time: 0 hr 1 min 8 sec) 
Heartbeat CPU  0 instructions:   60000000 cycles:   64555125 heartbeat IPC: 0.89365 cumulative IPC: 0.92944 (Simulation time: 0 hr 1 min 10 sec) 
Heartbeat CPU  0 instructions:   61000000 cycles:   65651381 heartbeat IPC: 0.91220 cumulative IPC: 0.92915 (Simulation time: 0 hr 1 min 11 sec) 
Heartbeat CPU  0 instructions:   62000000 cycles:   66729692 heartbeat IPC: 0.92738 cumulative IPC: 0.92912 (Simulation time: 0 hr 1 min 12 sec) 
Heartbeat CPU  0 instructions:   63000001 cycles:   67747079 heartbeat IPC: 0.98291 cumulative IPC: 0.92993 (Simulation time: 0 hr 1 min 13 sec) 
Heartbeat CPU  0 instructions:   64000000 cycles:   68869586 heartbeat IPC: 0.89086 cumulative IPC: 0.92929 (Simulation time: 0 hr 1 min 14 sec) 
Heartbeat CPU  0 instructions:   65000000 cycles:   69945081 heartbeat IPC: 0.92980 cumulative IPC: 0.92930 (Simulation time: 0 hr 1 min 16 sec) 
Heartbeat CPU  0 instructions:   66000000 cycles:   71001998 heartbeat IPC: 0.94615 cumulative IPC: 0.92955 (Simulation time: 0 hr 1 min 17 sec) 
Heartbeat CPU  0 instructions:   67000000 cycles:   72115558 heartbeat IPC: 0.89802 cumulative IPC: 0.92906 (Simulation time: 0 hr 1 min 18 sec) 
Heartbeat CPU  0 instructions:   68000000 cycles:   73203963 heartbeat IPC: 0.91878 cumulative IPC: 0.92891 (Simulation time: 0 hr 1 min 19 sec) 
Heartbeat CPU  0 instructions:   69000001 cycles:   74312642 heartbeat IPC: 0.90198 cumulative IPC: 0.92851 (Simulation time: 0 hr 1 min 20 sec) 
Heartbeat CPU  0 instructions:   70000000 cycles:   75285576 heartbeat IPC: 1.02782 cumulative IPC: 0.92979 (Simulation time: 0 hr 1 min 21 sec) 
Heartbeat CPU  0 instructions:   71000000 cycles:   76200620 heartbeat IPC: 1.09284 cumulative IPC: 0.93175 (Simulation time: 0 hr 1 min 23 sec) 
Heartbeat CPU  0 instructions:   72000000 cycles:   77300168 heartbeat IPC: 0.90946 cumulative IPC: 0.93143 (Simulation time: 0 hr 1 min 24 sec) 
Heartbeat CPU  0 instructions:   73000001 cycles:   78362283 heartbeat IPC: 0.94152 cumulative IPC: 0.93157 (Simulation time: 0 hr 1 min 25 sec) 
Heartbeat CPU  0 instructions:   74000000 cycles:   79429188 heartbeat IPC: 0.93729 cumulative IPC: 0.93165 (Simulation time: 0 hr 1 min 26 sec) 
Heartbeat CPU  0 instructions:   75000001 cycles:   80371726 heartbeat IPC: 1.06097 cumulative IPC: 0.93316 (Simulation time: 0 hr 1 min 28 sec) 
Heartbeat CPU  0 instructions:   76000000 cycles:   81359755 heartbeat IPC: 1.01212 cumulative IPC: 0.93412 (Simulation time: 0 hr 1 min 29 sec) 
Heartbeat CPU  0 instructions:   77000002 cycles:   82401438 heartbeat IPC: 0.95999 cumulative IPC: 0.93445 (Simulation time: 0 hr 1 min 30 sec) 
Heartbeat CPU  0 instructions:   78000000 cycles:   83352713 heartbeat IPC: 1.05122 cumulative IPC: 0.93578 (Simulation time: 0 hr 1 min 31 sec) 
Heartbeat CPU  0 instructions:   79000003 cycles:   84383389 heartbeat IPC: 0.97024 cumulative IPC: 0.93620 (Simulation time: 0 hr 1 min 32 sec) 
Heartbeat CPU  0 instructions:   80000000 cycles:   85449796 heartbeat IPC: 0.93773 cumulative IPC: 0.93622 (Simulation time: 0 hr 1 min 34 sec) 
Heartbeat CPU  0 instructions:   81000003 cycles:   86538270 heartbeat IPC: 0.91872 cumulative IPC: 0.93600 (Simulation time: 0 hr 1 min 35 sec) 
Heartbeat CPU  0 instructions:   82000000 cycles:   87613259 heartbeat IPC: 0.93024 cumulative IPC: 0.93593 (Simulation time: 0 hr 1 min 36 sec) 
Heartbeat CPU  0 instructions:   83000001 cycles:   88712551 heartbeat IPC: 0.90968 cumulative IPC: 0.93561 (Simulation time: 0 hr 1 min 37 sec) 
Heartbeat CPU  0 instructions:   84000000 cycles:   89751620 heartbeat IPC: 0.96240 cumulative IPC: 0.93592 (Simulation time: 0 hr 1 min 38 sec) 
Heartbeat CPU  0 instructions:   85000000 cycles:   90751325 heartbeat IPC: 1.00030 cumulative IPC: 0.93663 (Simulation time: 0 hr 1 min 40 sec) 
Heartbeat CPU  0 instructions:   86000000 cycles:   91837456 heartbeat IPC: 0.92070 cumulative IPC: 0.93644 (Simulation time: 0 hr 1 min 41 sec) 
Heartbeat CPU  0 instructions:   87000002 cycles:   92924273 heartbeat IPC: 0.92012 cumulative IPC: 0.93625 (Simulation time: 0 hr 1 min 42 sec) 
Heartbeat CPU  0 instructions:   88000000 cycles:   93994466 heartbeat IPC: 0.93441 cumulative IPC: 0.93623 (Simulation time: 0 hr 1 min 43 sec) 
Heartbeat CPU  0 instructions:   89000002 cycles:   95093832 heartbeat IPC: 0.90962 cumulative IPC: 0.93592 (Simulation time: 0 hr 1 min 44 sec) 
Heartbeat CPU  0 instructions:   90000002 cycles:   96181232 heartbeat IPC: 0.91962 cumulative IPC: 0.93573 (Simulation time: 0 hr 1 min 45 sec) 
Heartbeat CPU  0 instructions:   91000001 cycles:   97247718 heartbeat IPC: 0.93766 cumulative IPC: 0.93575 (Simulation time: 0 hr 1 min 47 sec) 
Heartbeat CPU  0 instructions:   92000000 cycles:   98366506 heartbeat IPC: 0.89382 cumulative IPC: 0.93528 (Simulation time: 0 hr 1 min 48 sec) 
Heartbeat CPU  0 instructions:   93000000 cycles:   99405870 heartbeat IPC: 0.96213 cumulative IPC: 0.93556 (Simulation time: 0 hr 1 min 49 sec) 
Heartbeat CPU  0 instructions:   94000001 cycles:  100524125 heartbeat IPC: 0.89425 cumulative IPC: 0.93510 (Simulation time: 0 hr 1 min 50 sec) 
Heartbeat CPU  0 instructions:   95000001 cycles:  101616167 heartbeat IPC: 0.91572 cumulative IPC: 0.93489 (Simulation time: 0 hr 1 min 51 sec) 
Heartbeat CPU  0 instructions:   96000000 cycles:  102705932 heartbeat IPC: 0.91763 cumulative IPC: 0.93471 (Simulation time: 0 hr 1 min 52 sec) 
Heartbeat CPU  0 instructions:   97000001 cycles:  103834227 heartbeat IPC: 0.88629 cumulative IPC: 0.93418 (Simulation time: 0 hr 1 min 54 sec) 
Heartbeat CPU  0 instructions:   98000000 cycles:  104932969 heartbeat IPC: 0.91013 cumulative IPC: 0.93393 (Simulation time: 0 hr 1 min 55 sec) 
Heartbeat CPU  0 instructions:   99000003 cycles:  106004565 heartbeat IPC: 0.93319 cumulative IPC: 0.93392 (Simulation time: 0 hr 1 min 56 sec) 
Heartbeat CPU  0 instructions:  100000000 cycles:  107090129 heartbeat IPC: 0.92118 cumulative IPC: 0.93379 (Simulation time: 0 hr 1 min 57 sec) 

Warmup complete CPU  0 instructions:  100000001 cycles:  107090131 (Simulation time: 0 hr 1 min 57 sec) 

Heartbeat CPU  0 instructions:  101000000 cycles:  109764750 heartbeat IPC: 0.37388 cumulative IPC: 0.37388 (Simulation time: 0 hr 1 min 59 sec) 
Heartbeat CPU  0 instructions:  102000000 cycles:  112415472 heartbeat IPC: 0.37726 cumulative IPC: 0.37556 (Simulation time: 0 hr 2 min 1 sec) 
Heartbeat CPU  0 instructions:  103000000 cycles:  115071286 heartbeat IPC: 0.37653 cumulative IPC: 0.37589 (Simulation time: 0 hr 2 min 3 sec) 
Heartbeat CPU  0 instructions:  104000000 cycles:  117635484 heartbeat IPC: 0.38999 cumulative IPC: 0.37931 (Simulation time: 0 hr 2 min 5 sec) 
Heartbeat CPU  0 instructions:  105000003 cycles:  120369297 heartbeat IPC: 0.36579 cumulative IPC: 0.37653 (Simulation time: 0 hr 2 min 6 sec) 
Heartbeat CPU  0 instructions:  106000001 cycles:  123064906 heartbeat IPC: 0.37097 cumulative IPC: 0.37559 (Simulation time: 0 hr 2 min 8 sec) 
Heartbeat CPU  0 instructions:  107000003 cycles:  125762353 heartbeat IPC: 0.37072 cumulative IPC: 0.37489 (Simulation time: 0 hr 2 min 10 sec) 
Heartbeat CPU  0 instructions:  108000000 cycles:  128585528 heartbeat IPC: 0.35421 cumulative IPC: 0.37217 (Simulation time: 0 hr 2 min 12 sec) 
Heartbeat CPU  0 instructions:  109000000 cycles:  131379647 heartbeat IPC: 0.35789 cumulative IPC: 0.37053 (Simulation time: 0 hr 2 min 14 sec) 
Heartbeat CPU  0 instructions:  110000002 cycles:  134056132 heartbeat IPC: 0.37363 cumulative IPC: 0.37084 (Simulation time: 0 hr 2 min 16 sec) 
Heartbeat CPU  0 instructions:  111000002 cycles:  136633722 heartbeat IPC: 0.38796 cumulative IPC: 0.37233 (Simulation time: 0 hr 2 min 18 sec) 
Heartbeat CPU  0 instructions:  112000000 cycles:  139388186 heartbeat IPC: 0.36305 cumulative IPC: 0.37154 (Simulation time: 0 hr 2 min 20 sec) 
Heartbeat CPU  0 instructions:  113000001 cycles:  142248352 heartbeat IPC: 0.34963 cumulative IPC: 0.36976 (Simulation time: 0 hr 2 min 21 sec) 
Heartbeat CPU  0 instructions:  114000000 cycles:  145073847 heartbeat IPC: 0.35392 cumulative IPC: 0.36858 (Simulation time: 0 hr 2 min 23 sec) 
Heartbeat CPU  0 instructions:  115000000 cycles:  147784835 heartbeat IPC: 0.36887 cumulative IPC: 0.36860 (Simulation time: 0 hr 2 min 25 sec) 
Heartbeat CPU  0 instructions:  116000000 cycles:  150550709 heartbeat IPC: 0.36155 cumulative IPC: 0.36815 (Simulation time: 0 hr 2 min 27 sec) 
Heartbeat CPU  0 instructions:  117000002 cycles:  153277794 heartbeat IPC: 0.36669 cumulative IPC: 0.36806 (Simulation time: 0 hr 2 min 29 sec) 
Heartbeat CPU  0 instructions:  118000000 cycles:  156024289 heartbeat IPC: 0.36410 cumulative IPC: 0.36784 (Simulation time: 0 hr 2 min 31 sec) 
Heartbeat CPU  0 instructions:  119000000 cycles:  158779907 heartbeat IPC: 0.36290 cumulative IPC: 0.36758 (Simulation time: 0 hr 2 min 33 sec) 
Heartbeat CPU  0 instructions:  120000000 cycles:  161612163 heartbeat IPC: 0.35308 cumulative IPC: 0.36682 (Simulation time: 0 hr 2 min 35 sec) 
Heartbeat CPU  0 instructions:  121000000 cycles:  164322094 heartbeat IPC: 0.36901 cumulative IPC: 0.36693 (Simulation time: 0 hr 2 min 37 sec) 
Heartbeat CPU  0 instructions:  122000001 cycles:  167066688 heartbeat IPC: 0.36435 cumulative IPC: 0.36681 (Simulation time: 0 hr 2 min 38 sec) 
Heartbeat CPU  0 instructions:  123000001 cycles:  169756027 heartbeat IPC: 0.37184 cumulative IPC: 0.36703 (Simulation time: 0 hr 2 min 40 sec) 
Heartbeat CPU  0 instructions:  124000000 cycles:  172395225 heartbeat IPC: 0.37890 cumulative IPC: 0.36751 (Simulation time: 0 hr 2 min 42 sec) 
Heartbeat CPU  0 instructions:  125000003 cycles:  175024912 heartbeat IPC: 0.38027 cumulative IPC: 0.36800 (Simulation time: 0 hr 2 min 44 sec) 
Heartbeat CPU  0 instructions:  126000000 cycles:  177680252 heartbeat IPC: 0.37660 cumulative IPC: 0.36832 (Simulation time: 0 hr 2 min 46 sec) 
Heartbeat CPU  0 instructions:  127000001 cycles:  180544895 heartbeat IPC: 0.34908 cumulative IPC: 0.36757 (Simulation time: 0 hr 2 min 48 sec) 
Heartbeat CPU  0 instructions:  128000000 cycles:  183252392 heartbeat IPC: 0.36934 cumulative IPC: 0.36764 (Simulation time: 0 hr 2 min 50 sec) 
Heartbeat CPU  0 instructions:  129000001 cycles:  186098526 heartbeat IPC: 0.35135 cumulative IPC: 0.36705 (Simulation time: 0 hr 2 min 52 sec) 
Heartbeat CPU  0 instructions:  130000000 cycles:  188949381 heartbeat IPC: 0.35077 cumulative IPC: 0.36648 (Simulation time: 0 hr 2 min 53 sec) 
Heartbeat CPU  0 instructions:  131000000 cycles:  191690992 heartbeat IPC: 0.36475 cumulative IPC: 0.36643 (Simulation time: 0 hr 2 min 55 sec) 
Heartbeat CPU  0 instructions:  132000000 cycles:  194442182 heartbeat IPC: 0.36348 cumulative IPC: 0.36633 (Simulation time: 0 hr 2 min 57 sec) 
Heartbeat CPU  0 instructions:  133000001 cycles:  197146341 heartbeat IPC: 0.36980 cumulative IPC: 0.36644 (Simulation time: 0 hr 2 min 59 sec) 
Heartbeat CPU  0 instructions:  134000000 cycles:  199897797 heartbeat IPC: 0.36344 cumulative IPC: 0.36635 (Simulation time: 0 hr 3 min 1 sec) 
Heartbeat CPU  0 instructions:  135000000 cycles:  202679871 heartbeat IPC: 0.35944 cumulative IPC: 0.36615 (Simulation time: 0 hr 3 min 3 sec) 
Heartbeat CPU  0 instructions:  136000000 cycles:  205453878 heartbeat IPC: 0.36049 cumulative IPC: 0.36599 (Simulation time: 0 hr 3 min 5 sec) 
Heartbeat CPU  0 instructions:  137000000 cycles:  208176197 heartbeat IPC: 0.36733 cumulative IPC: 0.36602 (Simulation time: 0 hr 3 min 7 sec) 
Heartbeat CPU  0 instructions:  138000000 cycles:  210773296 heartbeat IPC: 0.38504 cumulative IPC: 0.36650 (Simulation time: 0 hr 3 min 8 sec) 
Heartbeat CPU  0 instructions:  139000002 cycles:  213457115 heartbeat IPC: 0.37260 cumulative IPC: 0.36666 (Simulation time: 0 hr 3 min 10 sec) 
Heartbeat CPU  0 instructions:  140000000 cycles:  216199941 heartbeat IPC: 0.36459 cumulative IPC: 0.36660 (Simulation time: 0 hr 3 min 12 sec) 
Heartbeat CPU  0 instructions:  141000003 cycles:  218930259 heartbeat IPC: 0.36626 cumulative IPC: 0.36659 (Simulation time: 0 hr 3 min 14 sec) 
Heartbeat CPU  0 instructions:  142000000 cycles:  221596764 heartbeat IPC: 0.37502 cumulative IPC: 0.36679 (Simulation time: 0 hr 3 min 16 sec) 
Heartbeat CPU  0 instructions:  143000001 cycles:  224245081 heartbeat IPC: 0.37760 cumulative IPC: 0.36704 (Simulation time: 0 hr 3 min 18 sec) 
Heartbeat CPU  0 instructions:  144000000 cycles:  225805678 heartbeat IPC: 0.64078 cumulative IPC: 0.37063 (Simulation time: 0 hr 3 min 20 sec) 
Heartbeat CPU  0 instructions:  145000002 cycles:  226808167 heartbeat IPC: 0.99752 cumulative IPC: 0.37588 (Simulation time: 0 hr 3 min 22 sec) 
Heartbeat CPU  0 instructions:  146000000 cycles:  228137159 heartbeat IPC: 0.75245 cumulative IPC: 0.38002 (Simulation time: 0 hr 3 min 24 sec) 
Heartbeat CPU  0 instructions:  147000001 cycles:  229622933 heartbeat IPC: 0.67305 cumulative IPC: 0.38357 (Simulation time: 0 hr 3 min 27 sec) 
Heartbeat CPU  0 instructions:  148000000 cycles:  231278282 heartbeat IPC: 0.60410 cumulative IPC: 0.38651 (Simulation time: 0 hr 3 min 29 sec) 
Heartbeat CPU  0 instructions:  149000000 cycles:  234258628 heartbeat IPC: 0.33553 cumulative IPC: 0.38532 (Simulation time: 0 hr 3 min 33 sec) 
Heartbeat CPU  0 instructions:  150000001 cycles:  237579962 heartbeat IPC: 0.30108 cumulative IPC: 0.38317 (Simulation time: 0 hr 3 min 36 sec) 
Heartbeat CPU  0 instructions:  151000001 cycles:  241110010 heartbeat IPC: 0.28328 cumulative IPC: 0.38054 (Simulation time: 0 hr 3 min 40 sec) 
Heartbeat CPU  0 instructions:  152000000 cycles:  245339741 heartbeat IPC: 0.23642 cumulative IPC: 0.37613 (Simulation time: 0 hr 3 min 44 sec) 
Heartbeat CPU  0 instructions:  153000001 cycles:  250408244 heartbeat IPC: 0.19730 cumulative IPC: 0.36981 (Simulation time: 0 hr 3 min 49 sec) 
Heartbeat CPU  0 instructions:  154000003 cycles:  255697646 heartbeat IPC: 0.18906 cumulative IPC: 0.36337 (Simulation time: 0 hr 3 min 54 sec) 
Heartbeat CPU  0 instructions:  155000003 cycles:  258087958 heartbeat IPC: 0.41836 cumulative IPC: 0.36424 (Simulation time: 0 hr 3 min 57 sec) 
Heartbeat CPU  0 instructions:  156000000 cycles:  259822829 heartbeat IPC: 0.57641 cumulative IPC: 0.36665 (Simulation time: 0 hr 3 min 59 sec) 
Heartbeat CPU  0 instructions:  157000001 cycles:  261562782 heartbeat IPC: 0.57473 cumulative IPC: 0.36900 (Simulation time: 0 hr 4 min 2 sec) 
Heartbeat CPU  0 instructions:  158000002 cycles:  263406433 heartbeat IPC: 0.54240 cumulative IPC: 0.37104 (Simulation time: 0 hr 4 min 5 sec) 
Heartbeat CPU  0 instructions:  159000002 cycles:  266950963 heartbeat IPC: 0.28212 cumulative IPC: 0.36907 (Simulation time: 0 hr 4 min 8 sec) 
Heartbeat CPU  0 instructions:  160000000 cycles:  270465289 heartbeat IPC: 0.28455 cumulative IPC: 0.36725 (Simulation time: 0 hr 4 min 12 sec) 
Heartbeat CPU  0 instructions:  161000003 cycles:  273979982 heartbeat IPC: 0.28452 cumulative IPC: 0.36551 (Simulation time: 0 hr 4 min 16 sec) 
Heartbeat CPU  0 instructions:  162000000 cycles:  278768149 heartbeat IPC: 0.20885 cumulative IPC: 0.36114 (Simulation time: 0 hr 4 min 20 sec) 
Heartbeat CPU  0 instructions:  163000002 cycles:  283976156 heartbeat IPC: 0.19201 cumulative IPC: 0.35616 (Simulation time: 0 hr 4 min 25 sec) 
Heartbeat CPU  0 instructions:  164000000 cycles:  288534524 heartbeat IPC: 0.21938 cumulative IPC: 0.35273 (Simulation time: 0 hr 4 min 29 sec) 
Heartbeat CPU  0 instructions:  165000003 cycles:  291305343 heartbeat IPC: 0.36091 cumulative IPC: 0.35285 (Simulation time: 0 hr 4 min 31 sec) 
Heartbeat CPU  0 instructions:  166000000 cycles:  294141127 heartbeat IPC: 0.35264 cumulative IPC: 0.35284 (Simulation time: 0 hr 4 min 33 sec) 
Heartbeat CPU  0 instructions:  167000002 cycles:  296923400 heartbeat IPC: 0.35942 cumulative IPC: 0.35294 (Simulation time: 0 hr 4 min 35 sec) 
Heartbeat CPU  0 instructions:  168000000 cycles:  299700855 heartbeat IPC: 0.36004 cumulative IPC: 0.35304 (Simulation time: 0 hr 4 min 37 sec) 
Heartbeat CPU  0 instructions:  169000000 cycles:  302509042 heartbeat IPC: 0.35610 cumulative IPC: 0.35309 (Simulation time: 0 hr 4 min 39 sec) 
Heartbeat CPU  0 instructions:  170000003 cycles:  305292845 heartbeat IPC: 0.35922 cumulative IPC: 0.35317 (Simulation time: 0 hr 4 min 41 sec) 
Heartbeat CPU  0 instructions:  171000000 cycles:  308001132 heartbeat IPC: 0.36924 cumulative IPC: 0.35339 (Simulation time: 0 hr 4 min 43 sec) 
Heartbeat CPU  0 instructions:  172000000 cycles:  310778257 heartbeat IPC: 0.36008 cumulative IPC: 0.35348 (Simulation time: 0 hr 4 min 44 sec) 
Heartbeat CPU  0 instructions:  173000000 cycles:  313472477 heartbeat IPC: 0.37116 cumulative IPC: 0.35371 (Simulation time: 0 hr 4 min 46 sec) 
Heartbeat CPU  0 instructions:  174000000 cycles:  316256684 heartbeat IPC: 0.35917 cumulative IPC: 0.35379 (Simulation time: 0 hr 4 min 48 sec) 
Heartbeat CPU  0 instructions:  175000001 cycles:  319028053 heartbeat IPC: 0.36083 cumulative IPC: 0.35388 (Simulation time: 0 hr 4 min 50 sec) 
Heartbeat CPU  0 instructions:  176000000 cycles:  321812195 heartbeat IPC: 0.35918 cumulative IPC: 0.35395 (Simulation time: 0 hr 4 min 52 sec) 
Heartbeat CPU  0 instructions:  177000000 cycles:  324594703 heartbeat IPC: 0.35939 cumulative IPC: 0.35402 (Simulation time: 0 hr 4 min 54 sec) 
Heartbeat CPU  0 instructions:  178000001 cycles:  327317489 heartbeat IPC: 0.36727 cumulative IPC: 0.35418 (Simulation time: 0 hr 4 min 56 sec) 
Heartbeat CPU  0 instructions:  179000003 cycles:  329930457 heartbeat IPC: 0.38271 cumulative IPC: 0.35451 (Simulation time: 0 hr 4 min 58 sec) 
Heartbeat CPU  0 instructions:  180000000 cycles:  332676592 heartbeat IPC: 0.36415 cumulative IPC: 0.35463 (Simulation time: 0 hr 4 min 59 sec) 
Heartbeat CPU  0 instructions:  181000000 cycles:  335162740 heartbeat IPC: 0.40223 cumulative IPC: 0.35515 (Simulation time: 0 hr 5 min 1 sec) 
Heartbeat CPU  0 instructions:  182000000 cycles:  337847182 heartbeat IPC: 0.37252 cumulative IPC: 0.35535 (Simulation time: 0 hr 5 min 3 sec) 
Heartbeat CPU  0 instructions:  183000000 cycles:  340425921 heartbeat IPC: 0.38779 cumulative IPC: 0.35571 (Simulation time: 0 hr 5 min 5 sec) 
Heartbeat CPU  0 instructions:  184000000 cycles:  342903523 heartbeat IPC: 0.40362 cumulative IPC: 0.35621 (Simulation time: 0 hr 5 min 7 sec) 
Heartbeat CPU  0 instructions:  185000000 cycles:  345521856 heartbeat IPC: 0.38192 cumulative IPC: 0.35650 (Simulation time: 0 hr 5 min 9 sec) 
Heartbeat CPU  0 instructions:  186000000 cycles:  348227026 heartbeat IPC: 0.36966 cumulative IPC: 0.35664 (Simulation time: 0 hr 5 min 10 sec) 
Heartbeat CPU  0 instructions:  187000000 cycles:  350806802 heartbeat IPC: 0.38763 cumulative IPC: 0.35697 (Simulation time: 0 hr 5 min 12 sec) 
Heartbeat CPU  0 instructions:  188000000 cycles:  353194390 heartbeat IPC: 0.41883 cumulative IPC: 0.35757 (Simulation time: 0 hr 5 min 14 sec) 
Heartbeat CPU  0 instructions:  189000000 cycles:  355832276 heartbeat IPC: 0.37909 cumulative IPC: 0.35780 (Simulation time: 0 hr 5 min 16 sec) 
Heartbeat CPU  0 instructions:  190000000 cycles:  358390811 heartbeat IPC: 0.39085 cumulative IPC: 0.35814 (Simulation time: 0 hr 5 min 18 sec) 
Heartbeat CPU  0 instructions:  191000001 cycles:  361010533 heartbeat IPC: 0.38172 cumulative IPC: 0.35838 (Simulation time: 0 hr 5 min 20 sec) 
Heartbeat CPU  0 instructions:  192000000 cycles:  363602010 heartbeat IPC: 0.38588 cumulative IPC: 0.35866 (Simulation time: 0 hr 5 min 22 sec) 
Heartbeat CPU  0 instructions:  193000001 cycles:  366145719 heartbeat IPC: 0.39313 cumulative IPC: 0.35900 (Simulation time: 0 hr 5 min 23 sec) 
Heartbeat CPU  0 instructions:  194000000 cycles:  368190061 heartbeat IPC: 0.48915 cumulative IPC: 0.36002 (Simulation time: 0 hr 5 min 25 sec) 
Heartbeat CPU  0 instructions:  195000000 cycles:  370821695 heartbeat IPC: 0.37999 cumulative IPC: 0.36021 (Simulation time: 0 hr 5 min 27 sec) 
Heartbeat CPU  0 instructions:  196000000 cycles:  373441935 heartbeat IPC: 0.38164 cumulative IPC: 0.36043 (Simulation time: 0 hr 5 min 29 sec) 
Heartbeat CPU  0 instructions:  197000002 cycles:  376002379 heartbeat IPC: 0.39056 cumulative IPC: 0.36071 (Simulation time: 0 hr 5 min 31 sec) 
Heartbeat CPU  0 instructions:  198000000 cycles:  378524417 heartbeat IPC: 0.39650 cumulative IPC: 0.36105 (Simulation time: 0 hr 5 min 33 sec) 
Heartbeat CPU  0 instructions:  199000000 cycles:  381041176 heartbeat IPC: 0.39734 cumulative IPC: 0.36138 (Simulation time: 0 hr 5 min 34 sec) 
Heartbeat CPU  0 instructions:  200000000 cycles:  383614515 heartbeat IPC: 0.38860 cumulative IPC: 0.36163 (Simulation time: 0 hr 5 min 36 sec) 
Heartbeat CPU  0 instructions:  201000002 cycles:  386288480 heartbeat IPC: 0.37398 cumulative IPC: 0.36175 (Simulation time: 0 hr 5 min 38 sec) 
Heartbeat CPU  0 instructions:  202000001 cycles:  388993331 heartbeat IPC: 0.36971 cumulative IPC: 0.36183 (Simulation time: 0 hr 5 min 40 sec) 
Heartbeat CPU  0 instructions:  203000000 cycles:  391576882 heartbeat IPC: 0.38706 cumulative IPC: 0.36206 (Simulation time: 0 hr 5 min 42 sec) 
Heartbeat CPU  0 instructions:  204000000 cycles:  394106792 heartbeat IPC: 0.39527 cumulative IPC: 0.36235 (Simulation time: 0 hr 5 min 44 sec) 
Heartbeat CPU  0 instructions:  205000002 cycles:  396731196 heartbeat IPC: 0.38104 cumulative IPC: 0.36252 (Simulation time: 0 hr 5 min 45 sec) 
Heartbeat CPU  0 instructions:  206000001 cycles:  399261608 heartbeat IPC: 0.39519 cumulative IPC: 0.36280 (Simulation time: 0 hr 5 min 47 sec) 
Heartbeat CPU  0 instructions:  207000000 cycles:  401839769 heartbeat IPC: 0.38787 cumulative IPC: 0.36302 (Simulation time: 0 hr 5 min 49 sec) 
Heartbeat CPU  0 instructions:  208000000 cycles:  404653240 heartbeat IPC: 0.35543 cumulative IPC: 0.36295 (Simulation time: 0 hr 5 min 51 sec) 
Heartbeat CPU  0 instructions:  209000003 cycles:  407477520 heartbeat IPC: 0.35407 cumulative IPC: 0.36286 (Simulation time: 0 hr 5 min 53 sec) 
Heartbeat CPU  0 instructions:  210000000 cycles:  410078738 heartbeat IPC: 0.38443 cumulative IPC: 0.36305 (Simulation time: 0 hr 5 min 55 sec) 
Heartbeat CPU  0 instructions:  211000000 cycles:  412943652 heartbeat IPC: 0.34905 cumulative IPC: 0.36292 (Simulation time: 0 hr 5 min 57 sec) 
Heartbeat CPU  0 instructions:  212000000 cycles:  415640941 heartbeat IPC: 0.37074 cumulative IPC: 0.36299 (Simulation time: 0 hr 5 min 59 sec) 
Heartbeat CPU  0 instructions:  213000002 cycles:  418382879 heartbeat IPC: 0.36471 cumulative IPC: 0.36300 (Simulation time: 0 hr 6 min 1 sec) 
Heartbeat CPU  0 instructions:  214000000 cycles:  421187919 heartbeat IPC: 0.35650 cumulative IPC: 0.36294 (Simulation time: 0 hr 6 min 2 sec) 
Heartbeat CPU  0 instructions:  215000001 cycles:  423977580 heartbeat IPC: 0.35847 cumulative IPC: 0.36290 (Simulation time: 0 hr 6 min 4 sec) 
Heartbeat CPU  0 instructions:  216000000 cycles:  426744929 heartbeat IPC: 0.36136 cumulative IPC: 0.36289 (Simulation time: 0 hr 6 min 6 sec) 
Heartbeat CPU  0 instructions:  217000000 cycles:  429522155 heartbeat IPC: 0.36007 cumulative IPC: 0.36287 (Simulation time: 0 hr 6 min 8 sec) 
Heartbeat CPU  0 instructions:  218000002 cycles:  432306069 heartbeat IPC: 0.35921 cumulative IPC: 0.36284 (Simulation time: 0 hr 6 min 10 sec) 
Heartbeat CPU  0 instructions:  219000000 cycles:  435062982 heartbeat IPC: 0.36272 cumulative IPC: 0.36283 (Simulation time: 0 hr 6 min 12 sec) 
Heartbeat CPU  0 instructions:  220000000 cycles:  437804353 heartbeat IPC: 0.36478 cumulative IPC: 0.36285 (Simulation time: 0 hr 6 min 14 sec) 
Heartbeat CPU  0 instructions:  221000003 cycles:  440607932 heartbeat IPC: 0.35669 cumulative IPC: 0.36280 (Simulation time: 0 hr 6 min 16 sec) 
Heartbeat CPU  0 instructions:  222000003 cycles:  443385993 heartbeat IPC: 0.35996 cumulative IPC: 0.36278 (Simulation time: 0 hr 6 min 18 sec) 
Heartbeat CPU  0 instructions:  223000000 cycles:  446103447 heartbeat IPC: 0.36799 cumulative IPC: 0.36282 (Simulation time: 0 hr 6 min 19 sec) 
Heartbeat CPU  0 instructions:  224000000 cycles:  448810977 heartbeat IPC: 0.36934 cumulative IPC: 0.36287 (Simulation time: 0 hr 6 min 21 sec) 
Heartbeat CPU  0 instructions:  225000000 cycles:  451443194 heartbeat IPC: 0.37991 cumulative IPC: 0.36300 (Simulation time: 0 hr 6 min 23 sec) 
Heartbeat CPU  0 instructions:  226000002 cycles:  454176507 heartbeat IPC: 0.36586 cumulative IPC: 0.36302 (Simulation time: 0 hr 6 min 25 sec) 
Heartbeat CPU  0 instructions:  227000000 cycles:  456912149 heartbeat IPC: 0.36554 cumulative IPC: 0.36304 (Simulation time: 0 hr 6 min 27 sec) 
Heartbeat CPU  0 instructions:  228000000 cycles:  459601621 heartbeat IPC: 0.37182 cumulative IPC: 0.36311 (Simulation time: 0 hr 6 min 29 sec) 
Heartbeat CPU  0 instructions:  229000003 cycles:  462404081 heartbeat IPC: 0.35683 cumulative IPC: 0.36306 (Simulation time: 0 hr 6 min 31 sec) 
Heartbeat CPU  0 instructions:  230000003 cycles:  465191467 heartbeat IPC: 0.35876 cumulative IPC: 0.36303 (Simulation time: 0 hr 6 min 33 sec) 
Heartbeat CPU  0 instructions:  231000000 cycles:  467972515 heartbeat IPC: 0.35958 cumulative IPC: 0.36300 (Simulation time: 0 hr 6 min 34 sec) 
Heartbeat CPU  0 instructions:  232000000 cycles:  470686548 heartbeat IPC: 0.36846 cumulative IPC: 0.36304 (Simulation time: 0 hr 6 min 36 sec) 
Heartbeat CPU  0 instructions:  233000001 cycles:  473418495 heartbeat IPC: 0.36604 cumulative IPC: 0.36306 (Simulation time: 0 hr 6 min 38 sec) 
Heartbeat CPU  0 instructions:  234000000 cycles:  476152254 heartbeat IPC: 0.36580 cumulative IPC: 0.36308 (Simulation time: 0 hr 6 min 40 sec) 
Heartbeat CPU  0 instructions:  235000000 cycles:  478865685 heartbeat IPC: 0.36854 cumulative IPC: 0.36312 (Simulation time: 0 hr 6 min 42 sec) 
Heartbeat CPU  0 instructions:  236000000 cycles:  481336006 heartbeat IPC: 0.40481 cumulative IPC: 0.36340 (Simulation time: 0 hr 6 min 44 sec) 
Heartbeat CPU  0 instructions:  237000001 cycles:  483678020 heartbeat IPC: 0.42698 cumulative IPC: 0.36379 (Simulation time: 0 hr 6 min 46 sec) 
Heartbeat CPU  0 instructions:  238000000 cycles:  486226081 heartbeat IPC: 0.39245 cumulative IPC: 0.36399 (Simulation time: 0 hr 6 min 47 sec) 
Heartbeat CPU  0 instructions:  239000000 cycles:  488987680 heartbeat IPC: 0.36211 cumulative IPC: 0.36397 (Simulation time: 0 hr 6 min 49 sec) 
Heartbeat CPU  0 instructions:  240000000 cycles:  491660255 heartbeat IPC: 0.37417 cumulative IPC: 0.36404 (Simulation time: 0 hr 6 min 51 sec) 
Heartbeat CPU  0 instructions:  241000000 cycles:  494359259 heartbeat IPC: 0.37051 cumulative IPC: 0.36409 (Simulation time: 0 hr 6 min 53 sec) 
Heartbeat CPU  0 instructions:  242000003 cycles:  497188864 heartbeat IPC: 0.35341 cumulative IPC: 0.36401 (Simulation time: 0 hr 6 min 55 sec) 
Heartbeat CPU  0 instructions:  243000001 cycles:  499955500 heartbeat IPC: 0.36145 cumulative IPC: 0.36399 (Simulation time: 0 hr 6 min 57 sec) 
Heartbeat CPU  0 instructions:  244000000 cycles:  502563319 heartbeat IPC: 0.38346 cumulative IPC: 0.36412 (Simulation time: 0 hr 6 min 59 sec) 
Heartbeat CPU  0 instructions:  245000000 cycles:  505114432 heartbeat IPC: 0.39199 cumulative IPC: 0.36430 (Simulation time: 0 hr 7 min 1 sec) 
Heartbeat CPU  0 instructions:  246000001 cycles:  507854726 heartbeat IPC: 0.36492 cumulative IPC: 0.36430 (Simulation time: 0 hr 7 min 2 sec) 
Heartbeat CPU  0 instructions:  247000002 cycles:  510506474 heartbeat IPC: 0.37711 cumulative IPC: 0.36439 (Simulation time: 0 hr 7 min 4 sec) 
Heartbeat CPU  0 instructions:  248000000 cycles:  513091212 heartbeat IPC: 0.38689 cumulative IPC: 0.36453 (Simulation time: 0 hr 7 min 6 sec) 
Heartbeat CPU  0 instructions:  249000003 cycles:  515641252 heartbeat IPC: 0.39215 cumulative IPC: 0.36470 (Simulation time: 0 hr 7 min 8 sec) 
Heartbeat CPU  0 instructions:  250000000 cycles:  518042295 heartbeat IPC: 0.41648 cumulative IPC: 0.36501 (Simulation time: 0 hr 7 min 10 sec) 
Heartbeat CPU  0 instructions:  251000002 cycles:  520758480 heartbeat IPC: 0.36816 cumulative IPC: 0.36503 (Simulation time: 0 hr 7 min 12 sec) 
Heartbeat CPU  0 instructions:  252000000 cycles:  523465857 heartbeat IPC: 0.36936 cumulative IPC: 0.36505 (Simulation time: 0 hr 7 min 14 sec) 
Heartbeat CPU  0 instructions:  253000000 cycles:  526273619 heartbeat IPC: 0.35616 cumulative IPC: 0.36500 (Simulation time: 0 hr 7 min 15 sec) 
Heartbeat CPU  0 instructions:  254000002 cycles:  528992859 heartbeat IPC: 0.36775 cumulative IPC: 0.36501 (Simulation time: 0 hr 7 min 17 sec) 
Heartbeat CPU  0 instructions:  255000001 cycles:  531723175 heartbeat IPC: 0.36626 cumulative IPC: 0.36502 (Simulation time: 0 hr 7 min 19 sec) 
Heartbeat CPU  0 instructions:  256000000 cycles:  534454484 heartbeat IPC: 0.36612 cumulative IPC: 0.36503 (Simulation time: 0 hr 7 min 21 sec) 
Heartbeat CPU  0 instructions:  257000000 cycles:  537171070 heartbeat IPC: 0.36811 cumulative IPC: 0.36505 (Simulation time: 0 hr 7 min 23 sec) 
Heartbeat CPU  0 instructions:  258000000 cycles:  539880472 heartbeat IPC: 0.36909 cumulative IPC: 0.36507 (Simulation time: 0 hr 7 min 25 sec) 
Heartbeat CPU  0 instructions:  259000000 cycles:  542370622 heartbeat IPC: 0.40158 cumulative IPC: 0.36528 (Simulation time: 0 hr 7 min 27 sec) 
Heartbeat CPU  0 instructions:  260000000 cycles:  545045494 heartbeat IPC: 0.37385 cumulative IPC: 0.36533 (Simulation time: 0 hr 7 min 29 sec) 
Heartbeat CPU  0 instructions:  261000000 cycles:  547753659 heartbeat IPC: 0.36925 cumulative IPC: 0.36536 (Simulation time: 0 hr 7 min 31 sec) 
Heartbeat CPU  0 instructions:  262000000 cycles:  550480616 heartbeat IPC: 0.36671 cumulative IPC: 0.36537 (Simulation time: 0 hr 7 min 33 sec) 
Heartbeat CPU  0 instructions:  263000001 cycles:  553173564 heartbeat IPC: 0.37134 cumulative IPC: 0.36540 (Simulation time: 0 hr 7 min 34 sec) 
Heartbeat CPU  0 instructions:  264000000 cycles:  555806727 heartbeat IPC: 0.37977 cumulative IPC: 0.36549 (Simulation time: 0 hr 7 min 36 sec) 
Heartbeat CPU  0 instructions:  265000002 cycles:  558437283 heartbeat IPC: 0.38015 cumulative IPC: 0.36557 (Simulation time: 0 hr 7 min 38 sec) 
Heartbeat CPU  0 instructions:  266000002 cycles:  561084621 heartbeat IPC: 0.37774 cumulative IPC: 0.36564 (Simulation time: 0 hr 7 min 40 sec) 
Heartbeat CPU  0 instructions:  267000003 cycles:  563811126 heartbeat IPC: 0.36677 cumulative IPC: 0.36565 (Simulation time: 0 hr 7 min 42 sec) 
Heartbeat CPU  0 instructions:  268000000 cycles:  566553395 heartbeat IPC: 0.36466 cumulative IPC: 0.36564 (Simulation time: 0 hr 7 min 44 sec) 
Heartbeat CPU  0 instructions:  269000001 cycles:  569284588 heartbeat IPC: 0.36614 cumulative IPC: 0.36565 (Simulation time: 0 hr 7 min 46 sec) 
Heartbeat CPU  0 instructions:  270000001 cycles:  571988753 heartbeat IPC: 0.36980 cumulative IPC: 0.36567 (Simulation time: 0 hr 7 min 47 sec) 
Heartbeat CPU  0 instructions:  271000003 cycles:  574682443 heartbeat IPC: 0.37124 cumulative IPC: 0.36570 (Simulation time: 0 hr 7 min 49 sec) 
Heartbeat CPU  0 instructions:  272000000 cycles:  577408841 heartbeat IPC: 0.36678 cumulative IPC: 0.36571 (Simulation time: 0 hr 7 min 51 sec) 
Heartbeat CPU  0 instructions:  273000001 cycles:  580097853 heartbeat IPC: 0.37188 cumulative IPC: 0.36574 (Simulation time: 0 hr 7 min 53 sec) 
Heartbeat CPU  0 instructions:  274000003 cycles:  582879020 heartbeat IPC: 0.35956 cumulative IPC: 0.36571 (Simulation time: 0 hr 7 min 55 sec) 
Heartbeat CPU  0 instructions:  275000002 cycles:  585609113 heartbeat IPC: 0.36629 cumulative IPC: 0.36571 (Simulation time: 0 hr 7 min 57 sec) 
Heartbeat CPU  0 instructions:  276000000 cycles:  588271595 heartbeat IPC: 0.37559 cumulative IPC: 0.36577 (Simulation time: 0 hr 7 min 59 sec) 
Heartbeat CPU  0 instructions:  277000000 cycles:  590842297 heartbeat IPC: 0.38900 cumulative IPC: 0.36589 (Simulation time: 0 hr 8 min 1 sec) 
Heartbeat CPU  0 instructions:  278000001 cycles:  593329531 heartbeat IPC: 0.40205 cumulative IPC: 0.36607 (Simulation time: 0 hr 8 min 2 sec) 
Heartbeat CPU  0 instructions:  279000002 cycles:  595906305 heartbeat IPC: 0.38808 cumulative IPC: 0.36619 (Simulation time: 0 hr 8 min 4 sec) 
Heartbeat CPU  0 instructions:  280000000 cycles:  598608316 heartbeat IPC: 0.37009 cumulative IPC: 0.36621 (Simulation time: 0 hr 8 min 6 sec) 
Heartbeat CPU  0 instructions:  281000002 cycles:  601331981 heartbeat IPC: 0.36715 cumulative IPC: 0.36622 (Simulation time: 0 hr 8 min 8 sec) 
Heartbeat CPU  0 instructions:  282000003 cycles:  603972343 heartbeat IPC: 0.37874 cumulative IPC: 0.36628 (Simulation time: 0 hr 8 min 10 sec) 
Heartbeat CPU  0 instructions:  283000001 cycles:  606430654 heartbeat IPC: 0.40678 cumulative IPC: 0.36648 (Simulation time: 0 hr 8 min 12 sec) 
Heartbeat CPU  0 instructions:  284000000 cycles:  609042830 heartbeat IPC: 0.38282 cumulative IPC: 0.36657 (Simulation time: 0 hr 8 min 14 sec) 
Heartbeat CPU  0 instructions:  285000001 cycles:  611710252 heartbeat IPC: 0.37489 cumulative IPC: 0.36661 (Simulation time: 0 hr 8 min 16 sec) 
Heartbeat CPU  0 instructions:  286000000 cycles:  614196116 heartbeat IPC: 0.40227 cumulative IPC: 0.36679 (Simulation time: 0 hr 8 min 17 sec) 
Heartbeat CPU  0 instructions:  287000002 cycles:  616761977 heartbeat IPC: 0.38973 cumulative IPC: 0.36690 (Simulation time: 0 hr 8 min 19 sec) 
Heartbeat CPU  0 instructions:  288000000 cycles:  619473311 heartbeat IPC: 0.36882 cumulative IPC: 0.36691 (Simulation time: 0 hr 8 min 21 sec) 
Heartbeat CPU  0 instructions:  289000000 cycles:  622227973 heartbeat IPC: 0.36302 cumulative IPC: 0.36689 (Simulation time: 0 hr 8 min 23 sec) 
Heartbeat CPU  0 instructions:  290000002 cycles:  624800826 heartbeat IPC: 0.38867 cumulative IPC: 0.36700 (Simulation time: 0 hr 8 min 25 sec) 
Heartbeat CPU  0 instructions:  291000000 cycles:  627673350 heartbeat IPC: 0.34813 cumulative IPC: 0.36690 (Simulation time: 0 hr 8 min 27 sec) 
Heartbeat CPU  0 instructions:  292000000 cycles:  630490931 heartbeat IPC: 0.35491 cumulative IPC: 0.36683 (Simulation time: 0 hr 8 min 29 sec) 
Heartbeat CPU  0 instructions:  293000000 cycles:  633269486 heartbeat IPC: 0.35990 cumulative IPC: 0.36680 (Simulation time: 0 hr 8 min 31 sec) 
Heartbeat CPU  0 instructions:  294000002 cycles:  636019365 heartbeat IPC: 0.36365 cumulative IPC: 0.36678 (Simulation time: 0 hr 8 min 32 sec) 
Heartbeat CPU  0 instructions:  295000001 cycles:  638717843 heartbeat IPC: 0.37058 cumulative IPC: 0.36680 (Simulation time: 0 hr 8 min 34 sec) 
Heartbeat CPU  0 instructions:  296000000 cycles:  641465637 heartbeat IPC: 0.36393 cumulative IPC: 0.36678 (Simulation time: 0 hr 8 min 36 sec) 
Heartbeat CPU  0 instructions:  297000000 cycles:  644177378 heartbeat IPC: 0.36877 cumulative IPC: 0.36679 (Simulation time: 0 hr 8 min 38 sec) 
Heartbeat CPU  0 instructions:  298000000 cycles:  646846691 heartbeat IPC: 0.37463 cumulative IPC: 0.36683 (Simulation time: 0 hr 8 min 40 sec) 
Heartbeat CPU  0 instructions:  299000000 cycles:  649624883 heartbeat IPC: 0.35995 cumulative IPC: 0.36680 (Simulation time: 0 hr 8 min 42 sec) 
Heartbeat CPU  0 instructions:  300000000 cycles:  652296642 heartbeat IPC: 0.37429 cumulative IPC: 0.36683 (Simulation time: 0 hr 8 min 44 sec) 
Heartbeat CPU  0 instructions:  301000000 cycles:  655062236 heartbeat IPC: 0.36159 cumulative IPC: 0.36681 (Simulation time: 0 hr 8 min 45 sec) 
Heartbeat CPU  0 instructions:  302000000 cycles:  657805175 heartbeat IPC: 0.36457 cumulative IPC: 0.36680 (Simulation time: 0 hr 8 min 47 sec) 
Heartbeat CPU  0 instructions:  303000000 cycles:  660680401 heartbeat IPC: 0.34780 cumulative IPC: 0.36670 (Simulation time: 0 hr 8 min 49 sec) 
Heartbeat CPU  0 instructions:  304000000 cycles:  663396848 heartbeat IPC: 0.36813 cumulative IPC: 0.36670 (Simulation time: 0 hr 8 min 51 sec) 
Heartbeat CPU  0 instructions:  305000002 cycles:  666025245 heartbeat IPC: 0.38046 cumulative IPC: 0.36677 (Simulation time: 0 hr 8 min 53 sec) 
Heartbeat CPU  0 instructions:  306000000 cycles:  668913200 heartbeat IPC: 0.34627 cumulative IPC: 0.36666 (Simulation time: 0 hr 8 min 55 sec) 
Heartbeat CPU  0 instructions:  307000000 cycles:  671632633 heartbeat IPC: 0.36772 cumulative IPC: 0.36667 (Simulation time: 0 hr 8 min 57 sec) 
Heartbeat CPU  0 instructions:  308000000 cycles:  674346341 heartbeat IPC: 0.36850 cumulative IPC: 0.36668 (Simulation time: 0 hr 8 min 59 sec) 
Heartbeat CPU  0 instructions:  309000000 cycles:  677020529 heartbeat IPC: 0.37395 cumulative IPC: 0.36671 (Simulation time: 0 hr 9 min 1 sec) 
Heartbeat CPU  0 instructions:  310000000 cycles:  679442970 heartbeat IPC: 0.41281 cumulative IPC: 0.36691 (Simulation time: 0 hr 9 min 2 sec) 
Heartbeat CPU  0 instructions:  311000000 cycles:  681325959 heartbeat IPC: 0.53107 cumulative IPC: 0.36744 (Simulation time: 0 hr 9 min 4 sec) 
Heartbeat CPU  0 instructions:  312000000 cycles:  683959481 heartbeat IPC: 0.37972 cumulative IPC: 0.36750 (Simulation time: 0 hr 9 min 6 sec) 
Heartbeat CPU  0 instructions:  313000002 cycles:  686706062 heartbeat IPC: 0.36409 cumulative IPC: 0.36748 (Simulation time: 0 hr 9 min 8 sec) 
Heartbeat CPU  0 instructions:  314000002 cycles:  689440241 heartbeat IPC: 0.36574 cumulative IPC: 0.36748 (Simulation time: 0 hr 9 min 9 sec) 
Heartbeat CPU  0 instructions:  315000001 cycles:  692202558 heartbeat IPC: 0.36201 cumulative IPC: 0.36745 (Simulation time: 0 hr 9 min 11 sec) 
Heartbeat CPU  0 instructions:  316000000 cycles:  695012306 heartbeat IPC: 0.35590 cumulative IPC: 0.36740 (Simulation time: 0 hr 9 min 13 sec) 
Heartbeat CPU  0 instructions:  317000003 cycles:  697764307 heartbeat IPC: 0.36337 cumulative IPC: 0.36738 (Simulation time: 0 hr 9 min 15 sec) 
Heartbeat CPU  0 instructions:  318000000 cycles:  700476837 heartbeat IPC: 0.36866 cumulative IPC: 0.36738 (Simulation time: 0 hr 9 min 17 sec) 
Heartbeat CPU  0 instructions:  319000000 cycles:  703116106 heartbeat IPC: 0.37889 cumulative IPC: 0.36743 (Simulation time: 0 hr 9 min 19 sec) 
Heartbeat CPU  0 instructions:  320000000 cycles:  705793013 heartbeat IPC: 0.37357 cumulative IPC: 0.36746 (Simulation time: 0 hr 9 min 21 sec) 
Heartbeat CPU  0 instructions:  321000003 cycles:  708518226 heartbeat IPC: 0.36694 cumulative IPC: 0.36746 (Simulation time: 0 hr 9 min 23 sec) 
Heartbeat CPU  0 instructions:  322000002 cycles:  711130150 heartbeat IPC: 0.38286 cumulative IPC: 0.36753 (Simulation time: 0 hr 9 min 24 sec) 
Heartbeat CPU  0 instructions:  323000000 cycles:  713752226 heartbeat IPC: 0.38138 cumulative IPC: 0.36759 (Simulation time: 0 hr 9 min 26 sec) 
Heartbeat CPU  0 instructions:  324000000 cycles:  715813054 heartbeat IPC: 0.48524 cumulative IPC: 0.36798 (Simulation time: 0 hr 9 min 28 sec) 
Heartbeat CPU  0 instructions:  325000001 cycles:  718207789 heartbeat IPC: 0.41758 cumulative IPC: 0.36818 (Simulation time: 0 hr 9 min 30 sec) 
Heartbeat CPU  0 instructions:  326000000 cycles:  720671978 heartbeat IPC: 0.40581 cumulative IPC: 0.36833 (Simulation time: 0 hr 9 min 31 sec) 
Heartbeat CPU  0 instructions:  327000000 cycles:  723096751 heartbeat IPC: 0.41241 cumulative IPC: 0.36850 (Simulation time: 0 hr 9 min 33 sec) 
Heartbeat CPU  0 instructions:  328000000 cycles:  725769870 heartbeat IPC: 0.37409 cumulative IPC: 0.36853 (Simulation time: 0 hr 9 min 35 sec) 
Heartbeat CPU  0 instructions:  329000003 cycles:  728267079 heartbeat IPC: 0.40045 cumulative IPC: 0.36866 (Simulation time: 0 hr 9 min 37 sec) 
Heartbeat CPU  0 instructions:  330000001 cycles:  730613430 heartbeat IPC: 0.42619 cumulative IPC: 0.36887 (Simulation time: 0 hr 9 min 39 sec) 
Heartbeat CPU  0 instructions:  331000001 cycles:  732982986 heartbeat IPC: 0.42202 cumulative IPC: 0.36907 (Simulation time: 0 hr 9 min 41 sec) 
Heartbeat CPU  0 instructions:  332000000 cycles:  735572987 heartbeat IPC: 0.38610 cumulative IPC: 0.36914 (Simulation time: 0 hr 9 min 42 sec) 
Heartbeat CPU  0 instructions:  333000000 cycles:  738153334 heartbeat IPC: 0.38754 cumulative IPC: 0.36922 (Simulation time: 0 hr 9 min 44 sec) 
Heartbeat CPU  0 instructions:  334000001 cycles:  740698672 heartbeat IPC: 0.39288 cumulative IPC: 0.36931 (Simulation time: 0 hr 9 min 46 sec) 
Heartbeat CPU  0 instructions:  335000000 cycles:  743305642 heartbeat IPC: 0.38359 cumulative IPC: 0.36937 (Simulation time: 0 hr 9 min 48 sec) 
Heartbeat CPU  0 instructions:  336000000 cycles:  745706001 heartbeat IPC: 0.41660 cumulative IPC: 0.36955 (Simulation time: 0 hr 9 min 50 sec) 
Heartbeat CPU  0 instructions:  337000000 cycles:  748096183 heartbeat IPC: 0.41838 cumulative IPC: 0.36973 (Simulation time: 0 hr 9 min 52 sec) 
Heartbeat CPU  0 instructions:  338000001 cycles:  750573839 heartbeat IPC: 0.40361 cumulative IPC: 0.36986 (Simulation time: 0 hr 9 min 54 sec) 
Heartbeat CPU  0 instructions:  339000000 cycles:  753038801 heartbeat IPC: 0.40569 cumulative IPC: 0.37000 (Simulation time: 0 hr 9 min 55 sec) 
Heartbeat CPU  0 instructions:  340000000 cycles:  755661588 heartbeat IPC: 0.38127 cumulative IPC: 0.37004 (Simulation time: 0 hr 9 min 57 sec) 
Heartbeat CPU  0 instructions:  341000002 cycles:  758269983 heartbeat IPC: 0.38338 cumulative IPC: 0.37010 (Simulation time: 0 hr 9 min 59 sec) 
Heartbeat CPU  0 instructions:  342000001 cycles:  761032562 heartbeat IPC: 0.36198 cumulative IPC: 0.37006 (Simulation time: 0 hr 10 min 1 sec) 
Heartbeat CPU  0 instructions:  343000003 cycles:  763624855 heartbeat IPC: 0.38576 cumulative IPC: 0.37013 (Simulation time: 0 hr 10 min 3 sec) 
Heartbeat CPU  0 instructions:  344000000 cycles:  766154083 heartbeat IPC: 0.39538 cumulative IPC: 0.37022 (Simulation time: 0 hr 10 min 5 sec) 
Heartbeat CPU  0 instructions:  345000003 cycles:  768949402 heartbeat IPC: 0.35774 cumulative IPC: 0.37017 (Simulation time: 0 hr 10 min 6 sec) 
Heartbeat CPU  0 instructions:  346000001 cycles:  771672294 heartbeat IPC: 0.36726 cumulative IPC: 0.37016 (Simulation time: 0 hr 10 min 8 sec) 
Heartbeat CPU  0 instructions:  347000002 cycles:  774163091 heartbeat IPC: 0.40148 cumulative IPC: 0.37027 (Simulation time: 0 hr 10 min 10 sec) 
Heartbeat CPU  0 instructions:  348000000 cycles:  776530673 heartbeat IPC: 0.42237 cumulative IPC: 0.37046 (Simulation time: 0 hr 10 min 12 sec) 
Heartbeat CPU  0 instructions:  349000000 cycles:  779168637 heartbeat IPC: 0.37908 cumulative IPC: 0.37049 (Simulation time: 0 hr 10 min 14 sec) 
Heartbeat CPU  0 instructions:  350000001 cycles:  781689284 heartbeat IPC: 0.39672 cumulative IPC: 0.37059 (Simulation time: 0 hr 10 min 16 sec) 
Heartbeat CPU  0 instructions:  351000000 cycles:  784492117 heartbeat IPC: 0.35678 cumulative IPC: 0.37053 (Simulation time: 0 hr 10 min 18 sec) 
Heartbeat CPU  0 instructions:  352000000 cycles:  787171508 heartbeat IPC: 0.37322 cumulative IPC: 0.37054 (Simulation time: 0 hr 10 min 20 sec) 
Heartbeat CPU  0 instructions:  353000002 cycles:  789743234 heartbeat IPC: 0.38884 cumulative IPC: 0.37061 (Simulation time: 0 hr 10 min 21 sec) 
Heartbeat CPU  0 instructions:  354000000 cycles:  792398208 heartbeat IPC: 0.37665 cumulative IPC: 0.37064 (Simulation time: 0 hr 10 min 23 sec) 
Heartbeat CPU  0 instructions:  355000003 cycles:  795140017 heartbeat IPC: 0.36472 cumulative IPC: 0.37061 (Simulation time: 0 hr 10 min 25 sec) 
Heartbeat CPU  0 instructions:  356000000 cycles:  797874225 heartbeat IPC: 0.36574 cumulative IPC: 0.37059 (Simulation time: 0 hr 10 min 27 sec) 
Heartbeat CPU  0 instructions:  357000000 cycles:  800548564 heartbeat IPC: 0.37392 cumulative IPC: 0.37061 (Simulation time: 0 hr 10 min 29 sec) 
Heartbeat CPU  0 instructions:  358000000 cycles:  803253001 heartbeat IPC: 0.36976 cumulative IPC: 0.37060 (Simulation time: 0 hr 10 min 31 sec) 
Heartbeat CPU  0 instructions:  359000000 cycles:  805940344 heartbeat IPC: 0.37211 cumulative IPC: 0.37061 (Simulation time: 0 hr 10 min 33 sec) 
Heartbeat CPU  0 instructions:  360000000 cycles:  808618008 heartbeat IPC: 0.37346 cumulative IPC: 0.37062 (Simulation time: 0 hr 10 min 35 sec) 
Heartbeat CPU  0 instructions:  361000000 cycles:  811151450 heartbeat IPC: 0.39472 cumulative IPC: 0.37071 (Simulation time: 0 hr 10 min 36 sec) 
Heartbeat CPU  0 instructions:  362000000 cycles:  814048238 heartbeat IPC: 0.34521 cumulative IPC: 0.37060 (Simulation time: 0 hr 10 min 38 sec) 
Heartbeat CPU  0 instructions:  363000000 cycles:  816831054 heartbeat IPC: 0.35935 cumulative IPC: 0.37056 (Simulation time: 0 hr 10 min 40 sec) 
Heartbeat CPU  0 instructions:  364000000 cycles:  819212933 heartbeat IPC: 0.41984 cumulative IPC: 0.37072 (Simulation time: 0 hr 10 min 42 sec) 
Heartbeat CPU  0 instructions:  365000000 cycles:  821613214 heartbeat IPC: 0.41662 cumulative IPC: 0.37088 (Simulation time: 0 hr 10 min 44 sec) 
Heartbeat CPU  0 instructions:  366000002 cycles:  823450852 heartbeat IPC: 0.54418 cumulative IPC: 0.37132 (Simulation time: 0 hr 10 min 45 sec) 
Heartbeat CPU  0 instructions:  367000000 cycles:  825197729 heartbeat IPC: 0.57245 cumulative IPC: 0.37181 (Simulation time: 0 hr 10 min 47 sec) 
Heartbeat CPU  0 instructions:  368000000 cycles:  827821283 heartbeat IPC: 0.38116 cumulative IPC: 0.37184 (Simulation time: 0 hr 10 min 49 sec) 
Heartbeat CPU  0 instructions:  369000000 cycles:  830598189 heartbeat IPC: 0.36011 cumulative IPC: 0.37180 (Simulation time: 0 hr 10 min 51 sec) 
Heartbeat CPU  0 instructions:  370000000 cycles:  833445983 heartbeat IPC: 0.35115 cumulative IPC: 0.37172 (Simulation time: 0 hr 10 min 52 sec) 
Heartbeat CPU  0 instructions:  371000003 cycles:  836108220 heartbeat IPC: 0.37563 cumulative IPC: 0.37173 (Simulation time: 0 hr 10 min 54 sec) 
Heartbeat CPU  0 instructions:  372000000 cycles:  838767557 heartbeat IPC: 0.37603 cumulative IPC: 0.37175 (Simulation time: 0 hr 10 min 56 sec) 
Heartbeat CPU  0 instructions:  373000002 cycles:  841430109 heartbeat IPC: 0.37558 cumulative IPC: 0.37176 (Simulation time: 0 hr 10 min 58 sec) 
Heartbeat CPU  0 instructions:  374000001 cycles:  844223524 heartbeat IPC: 0.35798 cumulative IPC: 0.37171 (Simulation time: 0 hr 11 min 0 sec) 
Heartbeat CPU  0 instructions:  375000000 cycles:  846995680 heartbeat IPC: 0.36073 cumulative IPC: 0.37167 (Simulation time: 0 hr 11 min 2 sec) 
Heartbeat CPU  0 instructions:  376000000 cycles:  849771355 heartbeat IPC: 0.36027 cumulative IPC: 0.37163 (Simulation time: 0 hr 11 min 4 sec) 
Heartbeat CPU  0 instructions:  377000002 cycles:  852538353 heartbeat IPC: 0.36140 cumulative IPC: 0.37159 (Simulation time: 0 hr 11 min 6 sec) 
Heartbeat CPU  0 instructions:  378000001 cycles:  855299626 heartbeat IPC: 0.36215 cumulative IPC: 0.37155 (Simulation time: 0 hr 11 min 7 sec) 
Heartbeat CPU  0 instructions:  379000000 cycles:  858154354 heartbeat IPC: 0.35030 cumulative IPC: 0.37147 (Simulation time: 0 hr 11 min 9 sec) 
Heartbeat CPU  0 instructions:  380000000 cycles:  860983327 heartbeat IPC: 0.35349 cumulative IPC: 0.37141 (Simulation time: 0 hr 11 min 11 sec) 
Heartbeat CPU  0 instructions:  381000002 cycles:  863823252 heartbeat IPC: 0.35212 cumulative IPC: 0.37133 (Simulation time: 0 hr 11 min 13 sec) 
Heartbeat CPU  0 instructions:  382000000 cycles:  866533382 heartbeat IPC: 0.36899 cumulative IPC: 0.37132 (Simulation time: 0 hr 11 min 15 sec) 
Heartbeat CPU  0 instructions:  383000001 cycles:  869247827 heartbeat IPC: 0.36840 cumulative IPC: 0.37131 (Simulation time: 0 hr 11 min 17 sec) 
Heartbeat CPU  0 instructions:  384000000 cycles:  872047193 heartbeat IPC: 0.35722 cumulative IPC: 0.37126 (Simulation time: 0 hr 11 min 19 sec) 
Heartbeat CPU  0 instructions:  385000002 cycles:  874768779 heartbeat IPC: 0.36743 cumulative IPC: 0.37125 (Simulation time: 0 hr 11 min 21 sec) 
Heartbeat CPU  0 instructions:  386000000 cycles:  877343484 heartbeat IPC: 0.38839 cumulative IPC: 0.37131 (Simulation time: 0 hr 11 min 22 sec) 
Heartbeat CPU  0 instructions:  387000000 cycles:  879953200 heartbeat IPC: 0.38318 cumulative IPC: 0.37135 (Simulation time: 0 hr 11 min 24 sec) 
Heartbeat CPU  0 instructions:  388000000 cycles:  882770409 heartbeat IPC: 0.35496 cumulative IPC: 0.37129 (Simulation time: 0 hr 11 min 26 sec) 
Heartbeat CPU  0 instructions:  389000000 cycles:  885437355 heartbeat IPC: 0.37496 cumulative IPC: 0.37130 (Simulation time: 0 hr 11 min 28 sec) 
Heartbeat CPU  0 instructions:  390000001 cycles:  888283351 heartbeat IPC: 0.35137 cumulative IPC: 0.37123 (Simulation time: 0 hr 11 min 30 sec) 
Heartbeat CPU  0 instructions:  391000001 cycles:  891032146 heartbeat IPC: 0.36380 cumulative IPC: 0.37120 (Simulation time: 0 hr 11 min 32 sec) 
Heartbeat CPU  0 instructions:  392000000 cycles:  893658265 heartbeat IPC: 0.38079 cumulative IPC: 0.37123 (Simulation time: 0 hr 11 min 34 sec) 
Heartbeat CPU  0 instructions:  393000001 cycles:  896447587 heartbeat IPC: 0.35851 cumulative IPC: 0.37119 (Simulation time: 0 hr 11 min 35 sec) 
Heartbeat CPU  0 instructions:  394000002 cycles:  899166044 heartbeat IPC: 0.36786 cumulative IPC: 0.37118 (Simulation time: 0 hr 11 min 37 sec) 
Heartbeat CPU  0 instructions:  395000000 cycles:  901769075 heartbeat IPC: 0.38417 cumulative IPC: 0.37122 (Simulation time: 0 hr 11 min 39 sec) 
Heartbeat CPU  0 instructions:  396000000 cycles:  904605300 heartbeat IPC: 0.35258 cumulative IPC: 0.37115 (Simulation time: 0 hr 11 min 41 sec) 
Heartbeat CPU  0 instructions:  397000000 cycles:  907382943 heartbeat IPC: 0.36002 cumulative IPC: 0.37111 (Simulation time: 0 hr 11 min 43 sec) 
Heartbeat CPU  0 instructions:  398000000 cycles:  909916623 heartbeat IPC: 0.39468 cumulative IPC: 0.37119 (Simulation time: 0 hr 11 min 45 sec) 
Heartbeat CPU  0 instructions:  399000000 cycles:  912718536 heartbeat IPC: 0.35690 cumulative IPC: 0.37114 (Simulation time: 0 hr 11 min 47 sec) 
Heartbeat CPU  0 instructions:  400000000 cycles:  915274970 heartbeat IPC: 0.39117 cumulative IPC: 0.37120 (Simulation time: 0 hr 11 min 48 sec) 
Heartbeat CPU  0 instructions:  401000003 cycles:  917997534 heartbeat IPC: 0.36730 cumulative IPC: 0.37119 (Simulation time: 0 hr 11 min 50 sec) 
Heartbeat CPU  0 instructions:  402000001 cycles:  920559223 heartbeat IPC: 0.39037 cumulative IPC: 0.37125 (Simulation time: 0 hr 11 min 52 sec) 
Heartbeat CPU  0 instructions:  403000001 cycles:  923045673 heartbeat IPC: 0.40218 cumulative IPC: 0.37134 (Simulation time: 0 hr 11 min 54 sec) 
Heartbeat CPU  0 instructions:  404000000 cycles:  925913021 heartbeat IPC: 0.34875 cumulative IPC: 0.37126 (Simulation time: 0 hr 11 min 56 sec) 
Heartbeat CPU  0 instructions:  405000001 cycles:  928750728 heartbeat IPC: 0.35240 cumulative IPC: 0.37120 (Simulation time: 0 hr 11 min 58 sec) 
Heartbeat CPU  0 instructions:  406000002 cycles:  931588973 heartbeat IPC: 0.35233 cumulative IPC: 0.37113 (Simulation time: 0 hr 11 min 59 sec) 
Heartbeat CPU  0 instructions:  407000000 cycles:  934247258 heartbeat IPC: 0.37618 cumulative IPC: 0.37115 (Simulation time: 0 hr 12 min 1 sec) 
Heartbeat CPU  0 instructions:  408000000 cycles:  937010824 heartbeat IPC: 0.36185 cumulative IPC: 0.37112 (Simulation time: 0 hr 12 min 3 sec) 
Heartbeat CPU  0 instructions:  409000003 cycles:  939744440 heartbeat IPC: 0.36582 cumulative IPC: 0.37110 (Simulation time: 0 hr 12 min 5 sec) 
Heartbeat CPU  0 instructions:  410000002 cycles:  942399052 heartbeat IPC: 0.37670 cumulative IPC: 0.37112 (Simulation time: 0 hr 12 min 7 sec) 
Heartbeat CPU  0 instructions:  411000000 cycles:  945171532 heartbeat IPC: 0.36069 cumulative IPC: 0.37109 (Simulation time: 0 hr 12 min 9 sec) 
Heartbeat CPU  0 instructions:  412000000 cycles:  947851615 heartbeat IPC: 0.37312 cumulative IPC: 0.37109 (Simulation time: 0 hr 12 min 10 sec) 
Heartbeat CPU  0 instructions:  413000001 cycles:  950659646 heartbeat IPC: 0.35612 cumulative IPC: 0.37104 (Simulation time: 0 hr 12 min 12 sec) 
Heartbeat CPU  0 instructions:  414000003 cycles:  953314364 heartbeat IPC: 0.37669 cumulative IPC: 0.37106 (Simulation time: 0 hr 12 min 14 sec) 
Heartbeat CPU  0 instructions:  415000002 cycles:  955986409 heartbeat IPC: 0.37424 cumulative IPC: 0.37107 (Simulation time: 0 hr 12 min 16 sec) 
Heartbeat CPU  0 instructions:  416000000 cycles:  958677345 heartbeat IPC: 0.37162 cumulative IPC: 0.37107 (Simulation time: 0 hr 12 min 18 sec) 
Heartbeat CPU  0 instructions:  417000003 cycles:  961425334 heartbeat IPC: 0.36390 cumulative IPC: 0.37105 (Simulation time: 0 hr 12 min 20 sec) 
Heartbeat CPU  0 instructions:  418000001 cycles:  964191549 heartbeat IPC: 0.36150 cumulative IPC: 0.37102 (Simulation time: 0 hr 12 min 22 sec) 
Heartbeat CPU  0 instructions:  419000000 cycles:  967012971 heartbeat IPC: 0.35443 cumulative IPC: 0.37096 (Simulation time: 0 hr 12 min 23 sec) 
Heartbeat CPU  0 instructions:  420000000 cycles:  969760797 heartbeat IPC: 0.36392 cumulative IPC: 0.37094 (Simulation time: 0 hr 12 min 25 sec) 
Heartbeat CPU  0 instructions:  421000000 cycles:  972289206 heartbeat IPC: 0.39551 cumulative IPC: 0.37101 (Simulation time: 0 hr 12 min 27 sec) 
Heartbeat CPU  0 instructions:  422000001 cycles:  975116743 heartbeat IPC: 0.35367 cumulative IPC: 0.37096 (Simulation time: 0 hr 12 min 29 sec) 
Heartbeat CPU  0 instructions:  423000003 cycles:  977823862 heartbeat IPC: 0.36940 cumulative IPC: 0.37095 (Simulation time: 0 hr 12 min 31 sec) 
Heartbeat CPU  0 instructions:  424000000 cycles:  980414690 heartbeat IPC: 0.38598 cumulative IPC: 0.37100 (Simulation time: 0 hr 12 min 33 sec) 
Heartbeat CPU  0 instructions:  425000001 cycles:  983144531 heartbeat IPC: 0.36632 cumulative IPC: 0.37098 (Simulation time: 0 hr 12 min 35 sec) 
Heartbeat CPU  0 instructions:  426000003 cycles:  985655248 heartbeat IPC: 0.39829 cumulative IPC: 0.37106 (Simulation time: 0 hr 12 min 36 sec) 
Heartbeat CPU  0 instructions:  427000002 cycles:  988248738 heartbeat IPC: 0.38558 cumulative IPC: 0.37110 (Simulation time: 0 hr 12 min 38 sec) 
Heartbeat CPU  0 instructions:  428000000 cycles:  990831910 heartbeat IPC: 0.38712 cumulative IPC: 0.37115 (Simulation time: 0 hr 12 min 40 sec) 
Heartbeat CPU  0 instructions:  429000003 cycles:  993391675 heartbeat IPC: 0.39066 cumulative IPC: 0.37121 (Simulation time: 0 hr 12 min 42 sec) 
Heartbeat CPU  0 instructions:  430000002 cycles:  996148508 heartbeat IPC: 0.36273 cumulative IPC: 0.37118 (Simulation time: 0 hr 12 min 44 sec) 
Heartbeat CPU  0 instructions:  431000001 cycles:  998666711 heartbeat IPC: 0.39711 cumulative IPC: 0.37125 (Simulation time: 0 hr 12 min 45 sec) 
Heartbeat CPU  0 instructions:  432000000 cycles: 1001370338 heartbeat IPC: 0.36987 cumulative IPC: 0.37125 (Simulation time: 0 hr 12 min 47 sec) 
Heartbeat CPU  0 instructions:  433000003 cycles: 1004060085 heartbeat IPC: 0.37178 cumulative IPC: 0.37125 (Simulation time: 0 hr 12 min 49 sec) 
Heartbeat CPU  0 instructions:  434000000 cycles: 1006627342 heartbeat IPC: 0.38952 cumulative IPC: 0.37130 (Simulation time: 0 hr 12 min 51 sec) 
Heartbeat CPU  0 instructions:  435000000 cycles: 1009425956 heartbeat IPC: 0.35732 cumulative IPC: 0.37126 (Simulation time: 0 hr 12 min 53 sec) 
Heartbeat CPU  0 instructions:  436000000 cycles: 1011761172 heartbeat IPC: 0.42823 cumulative IPC: 0.37141 (Simulation time: 0 hr 12 min 54 sec) 
Heartbeat CPU  0 instructions:  437000003 cycles: 1014337652 heartbeat IPC: 0.38813 cumulative IPC: 0.37145 (Simulation time: 0 hr 12 min 56 sec) 
Heartbeat CPU  0 instructions:  438000001 cycles: 1017207488 heartbeat IPC: 0.34845 cumulative IPC: 0.37138 (Simulation time: 0 hr 12 min 58 sec) 
Heartbeat CPU  0 instructions:  439000000 cycles: 1020096457 heartbeat IPC: 0.34614 cumulative IPC: 0.37130 (Simulation time: 0 hr 13 min 0 sec) 
Heartbeat CPU  0 instructions:  440000000 cycles: 1022860640 heartbeat IPC: 0.36177 cumulative IPC: 0.37127 (Simulation time: 0 hr 13 min 2 sec) 
Heartbeat CPU  0 instructions:  441000003 cycles: 1025642379 heartbeat IPC: 0.35949 cumulative IPC: 0.37124 (Simulation time: 0 hr 13 min 4 sec) 
Heartbeat CPU  0 instructions:  442000002 cycles: 1028400399 heartbeat IPC: 0.36258 cumulative IPC: 0.37121 (Simulation time: 0 hr 13 min 6 sec) 
Heartbeat CPU  0 instructions:  443000001 cycles: 1031232996 heartbeat IPC: 0.35303 cumulative IPC: 0.37115 (Simulation time: 0 hr 13 min 7 sec) 
Heartbeat CPU  0 instructions:  444000000 cycles: 1034008793 heartbeat IPC: 0.36026 cumulative IPC: 0.37112 (Simulation time: 0 hr 13 min 9 sec) 
Heartbeat CPU  0 instructions:  445000000 cycles: 1036869158 heartbeat IPC: 0.34961 cumulative IPC: 0.37106 (Simulation time: 0 hr 13 min 11 sec) 
Heartbeat CPU  0 instructions:  446000000 cycles: 1039718326 heartbeat IPC: 0.35098 cumulative IPC: 0.37099 (Simulation time: 0 hr 13 min 13 sec) 
Heartbeat CPU  0 instructions:  447000000 cycles: 1042507660 heartbeat IPC: 0.35851 cumulative IPC: 0.37096 (Simulation time: 0 hr 13 min 15 sec) 
Heartbeat CPU  0 instructions:  448000000 cycles: 1045030982 heartbeat IPC: 0.39630 cumulative IPC: 0.37103 (Simulation time: 0 hr 13 min 17 sec) 
Heartbeat CPU  0 instructions:  449000001 cycles: 1047897906 heartbeat IPC: 0.34881 cumulative IPC: 0.37096 (Simulation time: 0 hr 13 min 19 sec) 
Heartbeat CPU  0 instructions:  450000002 cycles: 1050668979 heartbeat IPC: 0.36087 cumulative IPC: 0.37093 (Simulation time: 0 hr 13 min 21 sec) 
Heartbeat CPU  0 instructions:  451000001 cycles: 1053356591 heartbeat IPC: 0.37208 cumulative IPC: 0.37093 (Simulation time: 0 hr 13 min 22 sec) 
Heartbeat CPU  0 instructions:  452000000 cycles: 1056177110 heartbeat IPC: 0.35454 cumulative IPC: 0.37088 (Simulation time: 0 hr 13 min 24 sec) 
Heartbeat CPU  0 instructions:  453000001 cycles: 1058972186 heartbeat IPC: 0.35777 cumulative IPC: 0.37084 (Simulation time: 0 hr 13 min 26 sec) 
Heartbeat CPU  0 instructions:  454000003 cycles: 1061827557 heartbeat IPC: 0.35022 cumulative IPC: 0.37078 (Simulation time: 0 hr 13 min 28 sec) 
Heartbeat CPU  0 instructions:  455000000 cycles: 1064541566 heartbeat IPC: 0.36846 cumulative IPC: 0.37078 (Simulation time: 0 hr 13 min 30 sec) 
Heartbeat CPU  0 instructions:  456000000 cycles: 1067365049 heartbeat IPC: 0.35417 cumulative IPC: 0.37073 (Simulation time: 0 hr 13 min 32 sec) 
Heartbeat CPU  0 instructions:  457000000 cycles: 1070089991 heartbeat IPC: 0.36698 cumulative IPC: 0.37072 (Simulation time: 0 hr 13 min 34 sec) 
Heartbeat CPU  0 instructions:  458000003 cycles: 1072879179 heartbeat IPC: 0.35853 cumulative IPC: 0.37068 (Simulation time: 0 hr 13 min 36 sec) 
Heartbeat CPU  0 instructions:  459000001 cycles: 1075614056 heartbeat IPC: 0.36565 cumulative IPC: 0.37067 (Simulation time: 0 hr 13 min 37 sec) 
Heartbeat CPU  0 instructions:  460000000 cycles: 1078342263 heartbeat IPC: 0.36654 cumulative IPC: 0.37066 (Simulation time: 0 hr 13 min 39 sec) 
Heartbeat CPU  0 instructions:  461000002 cycles: 1081117217 heartbeat IPC: 0.36037 cumulative IPC: 0.37063 (Simulation time: 0 hr 13 min 41 sec) 
Heartbeat CPU  0 instructions:  462000001 cycles: 1083839488 heartbeat IPC: 0.36734 cumulative IPC: 0.37062 (Simulation time: 0 hr 13 min 43 sec) 
Heartbeat CPU  0 instructions:  463000001 cycles: 1086667560 heartbeat IPC: 0.35360 cumulative IPC: 0.37057 (Simulation time: 0 hr 13 min 45 sec) 
Heartbeat CPU  0 instructions:  464000000 cycles: 1089472711 heartbeat IPC: 0.35649 cumulative IPC: 0.37053 (Simulation time: 0 hr 13 min 47 sec) 
Heartbeat CPU  0 instructions:  465000001 cycles: 1092098692 heartbeat IPC: 0.38081 cumulative IPC: 0.37056 (Simulation time: 0 hr 13 min 48 sec) 
Heartbeat CPU  0 instructions:  466000000 cycles: 1094818127 heartbeat IPC: 0.36772 cumulative IPC: 0.37055 (Simulation time: 0 hr 13 min 50 sec) 
Heartbeat CPU  0 instructions:  467000003 cycles: 1097523141 heartbeat IPC: 0.36968 cumulative IPC: 0.37054 (Simulation time: 0 hr 13 min 52 sec) 
Heartbeat CPU  0 instructions:  468000000 cycles: 1100161765 heartbeat IPC: 0.37898 cumulative IPC: 0.37057 (Simulation time: 0 hr 13 min 54 sec) 
Heartbeat CPU  0 instructions:  469000002 cycles: 1102740496 heartbeat IPC: 0.38779 cumulative IPC: 0.37061 (Simulation time: 0 hr 13 min 56 sec) 
Heartbeat CPU  0 instructions:  470000000 cycles: 1105442680 heartbeat IPC: 0.37007 cumulative IPC: 0.37061 (Simulation time: 0 hr 13 min 58 sec) 
Heartbeat CPU  0 instructions:  471000000 cycles: 1108032249 heartbeat IPC: 0.38616 cumulative IPC: 0.37065 (Simulation time: 0 hr 13 min 59 sec) 
Heartbeat CPU  0 instructions:  472000000 cycles: 1110699983 heartbeat IPC: 0.37485 cumulative IPC: 0.37066 (Simulation time: 0 hr 14 min 1 sec) 
Heartbeat CPU  0 instructions:  473000001 cycles: 1113624256 heartbeat IPC: 0.34197 cumulative IPC: 0.37058 (Simulation time: 0 hr 14 min 3 sec) 
Heartbeat CPU  0 instructions:  474000000 cycles: 1116241414 heartbeat IPC: 0.38209 cumulative IPC: 0.37061 (Simulation time: 0 hr 14 min 5 sec) 
Heartbeat CPU  0 instructions:  475000000 cycles: 1119061293 heartbeat IPC: 0.35463 cumulative IPC: 0.37056 (Simulation time: 0 hr 14 min 7 sec) 
Heartbeat CPU  0 instructions:  476000000 cycles: 1121877112 heartbeat IPC: 0.35514 cumulative IPC: 0.37052 (Simulation time: 0 hr 14 min 9 sec) 
Heartbeat CPU  0 instructions:  477000003 cycles: 1124607289 heartbeat IPC: 0.36628 cumulative IPC: 0.37051 (Simulation time: 0 hr 14 min 10 sec) 
Heartbeat CPU  0 instructions:  478000001 cycles: 1127266695 heartbeat IPC: 0.37602 cumulative IPC: 0.37052 (Simulation time: 0 hr 14 min 12 sec) 
Heartbeat CPU  0 instructions:  479000001 cycles: 1129870594 heartbeat IPC: 0.38404 cumulative IPC: 0.37056 (Simulation time: 0 hr 14 min 14 sec) 
Heartbeat CPU  0 instructions:  480000000 cycles: 1132728072 heartbeat IPC: 0.34996 cumulative IPC: 0.37050 (Simulation time: 0 hr 14 min 16 sec) 
Heartbeat CPU  0 instructions:  481000000 cycles: 1135402497 heartbeat IPC: 0.37391 cumulative IPC: 0.37051 (Simulation time: 0 hr 14 min 18 sec) 
Heartbeat CPU  0 instructions:  482000000 cycles: 1138031156 heartbeat IPC: 0.38042 cumulative IPC: 0.37054 (Simulation time: 0 hr 14 min 20 sec) 
Heartbeat CPU  0 instructions:  483000000 cycles: 1140592757 heartbeat IPC: 0.39038 cumulative IPC: 0.37058 (Simulation time: 0 hr 14 min 21 sec) 
Heartbeat CPU  0 instructions:  484000000 cycles: 1143285858 heartbeat IPC: 0.37132 cumulative IPC: 0.37059 (Simulation time: 0 hr 14 min 23 sec) 
Heartbeat CPU  0 instructions:  485000000 cycles: 1145942900 heartbeat IPC: 0.37636 cumulative IPC: 0.37060 (Simulation time: 0 hr 14 min 25 sec) 
Heartbeat CPU  0 instructions:  486000000 cycles: 1148551974 heartbeat IPC: 0.38328 cumulative IPC: 0.37063 (Simulation time: 0 hr 14 min 27 sec) 
Heartbeat CPU  0 instructions:  487000003 cycles: 1151355875 heartbeat IPC: 0.35665 cumulative IPC: 0.37060 (Simulation time: 0 hr 14 min 29 sec) 
Heartbeat CPU  0 instructions:  488000000 cycles: 1154157713 heartbeat IPC: 0.35691 cumulative IPC: 0.37056 (Simulation time: 0 hr 14 min 31 sec) 
Heartbeat CPU  0 instructions:  489000000 cycles: 1156869770 heartbeat IPC: 0.36872 cumulative IPC: 0.37055 (Simulation time: 0 hr 14 min 32 sec) 
Heartbeat CPU  0 instructions:  490000003 cycles: 1159633376 heartbeat IPC: 0.36185 cumulative IPC: 0.37053 (Simulation time: 0 hr 14 min 34 sec) 
Heartbeat CPU  0 instructions:  491000001 cycles: 1162356897 heartbeat IPC: 0.36717 cumulative IPC: 0.37052 (Simulation time: 0 hr 14 min 36 sec) 
Heartbeat CPU  0 instructions:  492000000 cycles: 1165135267 heartbeat IPC: 0.35992 cumulative IPC: 0.37049 (Simulation time: 0 hr 14 min 38 sec) 
Heartbeat CPU  0 instructions:  493000000 cycles: 1167821290 heartbeat IPC: 0.37230 cumulative IPC: 0.37050 (Simulation time: 0 hr 14 min 40 sec) 
Heartbeat CPU  0 instructions:  494000000 cycles: 1170460254 heartbeat IPC: 0.37894 cumulative IPC: 0.37052 (Simulation time: 0 hr 14 min 42 sec) 
Heartbeat CPU  0 instructions:  495000001 cycles: 1173300390 heartbeat IPC: 0.35210 cumulative IPC: 0.37047 (Simulation time: 0 hr 14 min 44 sec) 
Heartbeat CPU  0 instructions:  496000000 cycles: 1176061012 heartbeat IPC: 0.36224 cumulative IPC: 0.37045 (Simulation time: 0 hr 14 min 45 sec) 
Heartbeat CPU  0 instructions:  497000001 cycles: 1178837684 heartbeat IPC: 0.36014 cumulative IPC: 0.37042 (Simulation time: 0 hr 14 min 47 sec) 
Heartbeat CPU  0 instructions:  498000000 cycles: 1181608834 heartbeat IPC: 0.36086 cumulative IPC: 0.37040 (Simulation time: 0 hr 14 min 49 sec) 
Heartbeat CPU  0 instructions:  499000002 cycles: 1184346273 heartbeat IPC: 0.36531 cumulative IPC: 0.37039 (Simulation time: 0 hr 14 min 51 sec) 
Heartbeat CPU  0 instructions:  500000000 cycles: 1187039686 heartbeat IPC: 0.37128 cumulative IPC: 0.37039 (Simulation time: 0 hr 14 min 53 sec) 
Heartbeat CPU  0 instructions:  501000000 cycles: 1189762203 heartbeat IPC: 0.36731 cumulative IPC: 0.37038 (Simulation time: 0 hr 14 min 55 sec) 
Heartbeat CPU  0 instructions:  502000000 cycles: 1192546388 heartbeat IPC: 0.35917 cumulative IPC: 0.37035 (Simulation time: 0 hr 14 min 56 sec) 
Heartbeat CPU  0 instructions:  503000002 cycles: 1195371391 heartbeat IPC: 0.35398 cumulative IPC: 0.37031 (Simulation time: 0 hr 14 min 58 sec) 
Heartbeat CPU  0 instructions:  504000000 cycles: 1198203895 heartbeat IPC: 0.35304 cumulative IPC: 0.37026 (Simulation time: 0 hr 15 min 0 sec) 
Heartbeat CPU  0 instructions:  505000001 cycles: 1200824660 heartbeat IPC: 0.38157 cumulative IPC: 0.37029 (Simulation time: 0 hr 15 min 2 sec) 
Heartbeat CPU  0 instructions:  506000001 cycles: 1203648362 heartbeat IPC: 0.35415 cumulative IPC: 0.37025 (Simulation time: 0 hr 15 min 4 sec) 
Heartbeat CPU  0 instructions:  507000001 cycles: 1206481272 heartbeat IPC: 0.35299 cumulative IPC: 0.37020 (Simulation time: 0 hr 15 min 6 sec) 
Heartbeat CPU  0 instructions:  508000000 cycles: 1209225076 heartbeat IPC: 0.36446 cumulative IPC: 0.37019 (Simulation time: 0 hr 15 min 7 sec) 
Heartbeat CPU  0 instructions:  509000001 cycles: 1211797189 heartbeat IPC: 0.38879 cumulative IPC: 0.37023 (Simulation time: 0 hr 15 min 9 sec) 
Heartbeat CPU  0 instructions:  510000003 cycles: 1214535274 heartbeat IPC: 0.36522 cumulative IPC: 0.37022 (Simulation time: 0 hr 15 min 11 sec) 
Heartbeat CPU  0 instructions:  511000001 cycles: 1216979766 heartbeat IPC: 0.40908 cumulative IPC: 0.37031 (Simulation time: 0 hr 15 min 13 sec) 
Heartbeat CPU  0 instructions:  512000000 cycles: 1219731523 heartbeat IPC: 0.36340 cumulative IPC: 0.37029 (Simulation time: 0 hr 15 min 15 sec) 
Heartbeat CPU  0 instructions:  513000001 cycles: 1222439122 heartbeat IPC: 0.36933 cumulative IPC: 0.37029 (Simulation time: 0 hr 15 min 16 sec) 
Heartbeat CPU  0 instructions:  514000002 cycles: 1225136670 heartbeat IPC: 0.37071 cumulative IPC: 0.37029 (Simulation time: 0 hr 15 min 18 sec) 
Heartbeat CPU  0 instructions:  515000001 cycles: 1227668186 heartbeat IPC: 0.39502 cumulative IPC: 0.37034 (Simulation time: 0 hr 15 min 20 sec) 
Heartbeat CPU  0 instructions:  516000000 cycles: 1230171619 heartbeat IPC: 0.39945 cumulative IPC: 0.37041 (Simulation time: 0 hr 15 min 22 sec) 
Heartbeat CPU  0 instructions:  517000002 cycles: 1232998417 heartbeat IPC: 0.35376 cumulative IPC: 0.37037 (Simulation time: 0 hr 15 min 24 sec) 
Heartbeat CPU  0 instructions:  518000001 cycles: 1235811970 heartbeat IPC: 0.35542 cumulative IPC: 0.37033 (Simulation time: 0 hr 15 min 25 sec) 
Heartbeat CPU  0 instructions:  519000001 cycles: 1238522561 heartbeat IPC: 0.36892 cumulative IPC: 0.37033 (Simulation time: 0 hr 15 min 27 sec) 
Heartbeat CPU  0 instructions:  520000000 cycles: 1241330618 heartbeat IPC: 0.35612 cumulative IPC: 0.37029 (Simulation time: 0 hr 15 min 29 sec) 
Heartbeat CPU  0 instructions:  521000000 cycles: 1243989612 heartbeat IPC: 0.37608 cumulative IPC: 0.37031 (Simulation time: 0 hr 15 min 31 sec) 
Heartbeat CPU  0 instructions:  522000000 cycles: 1246644144 heartbeat IPC: 0.37671 cumulative IPC: 0.37032 (Simulation time: 0 hr 15 min 33 sec) 
Heartbeat CPU  0 instructions:  523000002 cycles: 1249120288 heartbeat IPC: 0.40385 cumulative IPC: 0.37039 (Simulation time: 0 hr 15 min 35 sec) 
Heartbeat CPU  0 instructions:  524000000 cycles: 1251900194 heartbeat IPC: 0.35972 cumulative IPC: 0.37037 (Simulation time: 0 hr 15 min 36 sec) 
Heartbeat CPU  0 instructions:  525000000 cycles: 1254492574 heartbeat IPC: 0.38575 cumulative IPC: 0.37040 (Simulation time: 0 hr 15 min 38 sec) 
Heartbeat CPU  0 instructions:  526000000 cycles: 1257109352 heartbeat IPC: 0.38215 cumulative IPC: 0.37043 (Simulation time: 0 hr 15 min 40 sec) 
Heartbeat CPU  0 instructions:  527000000 cycles: 1259428272 heartbeat IPC: 0.43124 cumulative IPC: 0.37055 (Simulation time: 0 hr 15 min 42 sec) 
Heartbeat CPU  0 instructions:  528000000 cycles: 1261919993 heartbeat IPC: 0.40133 cumulative IPC: 0.37062 (Simulation time: 0 hr 15 min 44 sec) 
[...]
Heartbeat CPU  0 instructions:  599000000 cycles: 1450654537 heartbeat IPC: 0.34674 cumulative IPC: 0.37140 (Simulation time: 0 hr 17 min 52 sec) 
Heartbeat CPU  0 instructions:  600000000 cycles: 1453084644 heartbeat IPC: 0.41150 cumulative IPC: 0.37147 (Simulation time: 0 hr 17 min 53 sec) 
Finished CPU 0 instructions: 500000000 cycles: 1345994521 cumulative IPC: 0.37147 (Simulation time: 0 hr 17 min 53 sec) 

ChampSim completed all CPUs

[ROI Statistics]
Core_0_instructions 500000000
Core_0_cycles 1345994521
Core_0_IPC 0.37147

Core_0_branch_prediction_accuracy 85.18932
Core_0_branch_MPKI 24.43069
Core_0_average_ROB_occupancy_at_mispredict 38.24807

Core_0_L1D_total_access 155819875
Core_0_L1D_total_hit 153504241
Core_0_L1D_total_miss 2315634
Core_0_L1D_loads 89924384
Core_0_L1D_load_hit 89094854
Core_0_L1D_load_miss 829530
Core_0_L1D_RFOs 65895491
Core_0_L1D_RFO_hit 64409387
Core_0_L1D_RFO_miss 1486104
Core_0_L1D_prefetches 0
Core_0_L1D_prefetch_hit 0
Core_0_L1D_prefetch_miss 0
Core_0_L1D_writebacks 0
Core_0_L1D_writeback_hit 0
Core_0_L1D_writeback_miss 0
Core_0_L1D_prefetch_requested 0
Core_0_L1D_prefetch_dropped 0
Core_0_L1D_prefetch_issued 0
Core_0_L1D_prefetch_filled 0
Core_0_L1D_prefetch_useful 0
Core_0_L1D_prefetch_useless 0
Core_0_L1D_prefetch_late 0
Core_0_L1D_average_miss_latency 448.56770

Core_0_L1D_rq_access 125890391
Core_0_L1D_rq_forward 0
Core_0_L1D_rq_merged 35873349
Core_0_L1D_rq_to_cache 90016260
Core_0_L1D_rq_full 0

Core_0_L1D_wq_access 70505122
Core_0_L1D_wq_forward 782
Core_0_L1D_wq_merged 423359
Core_0_L1D_wq_to_cache 70081763
Core_0_L1D_wq_full 52552252

Core_0_L1D_pq_access 0
Core_0_L1D_pq_forward 0
Core_0_L1D_pq_merged 0
Core_0_L1D_pq_to_cache 0
Core_0_L1D_pq_full 0

Core_0_L1D_acc_epochs 1416775
Core_0_L1D_acc_level_0 1416775
Core_0_L1D_acc_level_1 0
Core_0_L1D_acc_level_2 0
Core_0_L1D_acc_level_3 0
Core_0_L1D_acc_level_4 0
Core_0_L1D_acc_level_5 0
Core_0_L1D_acc_level_6 0
Core_0_L1D_acc_level_7 0
Core_0_L1D_acc_level_8 0
Core_0_L1D_acc_level_9 0

Core_0_L1I_total_access 99875883
Core_0_L1I_total_hit 97930949
Core_0_L1I_total_miss 1944934
Core_0_L1I_loads 99875883
Core_0_L1I_load_hit 97930949
Core_0_L1I_load_miss 1944934
Core_0_L1I_RFOs 0
Core_0_L1I_RFO_hit 0
Core_0_L1I_RFO_miss 0
Core_0_L1I_prefetches 0
Core_0_L1I_prefetch_hit 0
Core_0_L1I_prefetch_miss 0
Core_0_L1I_writebacks 0
Core_0_L1I_writeback_hit 0
Core_0_L1I_writeback_miss 0
Core_0_L1I_prefetch_requested 0
Core_0_L1I_prefetch_dropped 0
Core_0_L1I_prefetch_issued 0
Core_0_L1I_prefetch_filled 0
Core_0_L1I_prefetch_useful 0
Core_0_L1I_prefetch_useless 0
Core_0_L1I_prefetch_late 0
Core_0_L1I_average_miss_latency 12.88638

Core_0_L1I_rq_access 499999934
Core_0_L1I_rq_forward 0
Core_0_L1I_rq_merged 399408462
Core_0_L1I_rq_to_cache 100591472
Core_0_L1I_rq_full 0

Core_0_L1I_wq_access 0
Core_0_L1I_wq_forward 0
Core_0_L1I_wq_merged 0
Core_0_L1I_wq_to_cache 0
Core_0_L1I_wq_full 0

Core_0_L1I_pq_access 0
Core_0_L1I_pq_forward 0
Core_0_L1I_pq_merged 0
Core_0_L1I_pq_to_cache 0
Core_0_L1I_pq_full 0

Core_0_L1I_acc_epochs 1416775
Core_0_L1I_acc_level_0 1416775
Core_0_L1I_acc_level_1 0
Core_0_L1I_acc_level_2 0
Core_0_L1I_acc_level_3 0
Core_0_L1I_acc_level_4 0
Core_0_L1I_acc_level_5 0
Core_0_L1I_acc_level_6 0
Core_0_L1I_acc_level_7 0
Core_0_L1I_acc_level_8 0
Core_0_L1I_acc_level_9 0

Core_0_L2C_total_access 6067577
Core_0_L2C_total_hit 4703155
Core_0_L2C_total_miss 1364422
Core_0_L2C_loads 2774443
Core_0_L2C_load_hit 2329669
Core_0_L2C_load_miss 444774
Core_0_L2C_RFOs 1486059
Core_0_L2C_RFO_hit 609060
Core_0_L2C_RFO_miss 876999
Core_0_L2C_prefetches 52889
Core_0_L2C_prefetch_hit 12488
Core_0_L2C_prefetch_miss 40401
Core_0_L2C_writebacks 1754186
Core_0_L2C_writeback_hit 1751938
Core_0_L2C_writeback_miss 2248
Core_0_L2C_prefetch_requested 325163
Core_0_L2C_prefetch_dropped 0
Core_0_L2C_prefetch_issued 325163
Core_0_L2C_prefetch_filled 47167
Core_0_L2C_prefetch_useful 16113
Core_0_L2C_prefetch_useless 31054
Core_0_L2C_prefetch_late 1947
Core_0_L2C_average_miss_latency 744.76338

Core_0_L2C_rq_access 4260568
Core_0_L2C_rq_forward 0
Core_0_L2C_rq_merged 0
Core_0_L2C_rq_to_cache 4260502
Core_0_L2C_rq_full 0

Core_0_L2C_wq_access 1754186
Core_0_L2C_wq_forward 66
Core_0_L2C_wq_merged 0
Core_0_L2C_wq_to_cache 1754186
Core_0_L2C_wq_full 0

Core_0_L2C_pq_access 325163
Core_0_L2C_pq_forward 0
Core_0_L2C_pq_merged 998
Core_0_L2C_pq_to_cache 324165
Core_0_L2C_pq_full 0

Core_0_L2C_acc_epochs 1416775
Core_0_L2C_acc_level_0 1406450
Core_0_L2C_acc_level_1 4009
Core_0_L2C_acc_level_2 2713
Core_0_L2C_acc_level_3 506
Core_0_L2C_acc_level_4 144
Core_0_L2C_acc_level_5 1826
Core_0_L2C_acc_level_6 197
Core_0_L2C_acc_level_7 189
Core_0_L2C_acc_level_8 115
Core_0_L2C_acc_level_9 626

Core_0_LLC_total_access 2559441
Core_0_LLC_total_hit 887771
Core_0_LLC_total_miss 1671670
Core_0_LLC_loads 442832
Core_0_LLC_load_hit 364572
Core_0_LLC_load_miss 78260
Core_0_LLC_RFOs 876996
Core_0_LLC_RFO_hit 124747
Core_0_LLC_RFO_miss 752249
Core_0_LLC_prefetches 213790
Core_0_LLC_prefetch_hit 46829
Core_0_LLC_prefetch_miss 166961
Core_0_LLC_writebacks 1025823
Core_0_LLC_writeback_hit 351623
Core_0_LLC_writeback_miss 674200
Core_0_LLC_prefetch_requested 0
Core_0_LLC_prefetch_dropped 0
Core_0_LLC_prefetch_issued 0
Core_0_LLC_prefetch_filled 248261
Core_0_LLC_prefetch_useful 64839
Core_0_LLC_prefetch_useless 177229
Core_0_LLC_prefetch_late 892
Core_0_LLC_average_miss_latency 605.87895

Core_0_LLC_rq_access 1319830
Core_0_LLC_rq_forward 0
Core_0_LLC_rq_merged 0
Core_0_LLC_rq_to_cache 1319828
Core_0_LLC_rq_full 0

Core_0_LLC_wq_access 1025823
Core_0_LLC_wq_forward 2
Core_0_LLC_wq_merged 0
Core_0_LLC_wq_to_cache 1025823
Core_0_LLC_wq_full 0

Core_0_LLC_pq_access 305934
Core_0_LLC_pq_forward 0
Core_0_LLC_pq_merged 88
Core_0_LLC_pq_to_cache 305846
Core_0_LLC_pq_full 0

Core_0_LLC_acc_epochs 1419028
Core_0_LLC_acc_level_0 1356488
Core_0_LLC_acc_level_1 26407
Core_0_LLC_acc_level_2 18321
Core_0_LLC_acc_level_3 1379
Core_0_LLC_acc_level_4 161
Core_0_LLC_acc_level_5 13606
Core_0_LLC_acc_level_6 194
Core_0_LLC_acc_level_7 384
Core_0_LLC_acc_level_8 68
Core_0_LLC_acc_level_9 2020

Core_0_major_page_fault 0
Core_0_minor_page_fault 6639

[MLOP] History of tracked zone:
IIIIIIIIIIIIIIIIIIIIIIIIIIIIIIIIIIIIIIIIIIIIIIIIIIIIIIIIIIIIIIII
IIIIIIIIIIIIIIIIIIIIIIIIIIIIIIIIIIIIIIIIIIIIIIIIAII2II4I44I4II4I
IIIIIIIIIIIIIIIIIIIIIIIIIIIIIIIIIIIIIIIIIIIIIIIIAII2II4I44IAII2I
IIIIIIIIIIIIIIIIIIIIIIIIIIIIIIIIIIIIIIIIIIIIIIIIAII2II4I44IAIA2I
IIIIIIIIIIIIIIIIIIIIIIIIIIIIIIIIIIIIIIIIIIIIIIIIAII2II4I44IAAA22
IIIIIIIIIIIIIIIIIIIIIIIIIIIIIIIIIIIIIIIIIIIIIIIIAII2II4I44AAAA22
IIIIIIIIIIIIIIIIIIIIIIIIIIIIIIIIIIIIIIIIIIIIIIIIAII2A44444AAAA22
IIIIIIIIIIIIIIIIIIIIIIIIIIIIIIIIIIIIIIIIIIIIIIIIA4I2A44444AAAA22
IIIIIIIIIIIIIIIIIIIIIIIIIIIIIIIIIIIIIIIIIIIIIIIIA4I2A4A444AAAA22
IIIIIIIIIIIIIIIIIIIIIIIIIIIIIIIIIIIIIIIIIIIIIIIIA4I2A4AA44AAAA22
IIIIIIIIIIIIIIIIIIIIIIIIIIIIIIIIIIIIIIIIIIIIIIIIA4I2A4AAA4AAAA22
IIIIIIIIIIIIIIIIIIIIIIIIIIIIIIIIIIIIIIIIIIIIIIIIA4I2A2AAA4AAAA22
IIIIIIIIIIIIIIIIIIIIIIIIIIIIIIIIIIIIIIIIIIIIIIIIA4I2A2AAA4AAAI22
IIIIIIIIIIIIIIIIIIIIIIIIIIIIIIIIIIIIIIIIIIIIIIIIA4I2A2AAA4AAAA22
IIIIIIIIIIIIIIIIIIIIIIIIIIIIIIIIIIIIIIIIIIIIIIIIA4I2A2AAA4AAAAI2
IIIIIIIIIIIIIIIIIIIIIIIIIIIIIIIIIIIIIIIIIIIIIIIIA4I2AAAAA4AAAA42
IIIIIIIIIIIIIIIIIIIIIIIIIIIIIIIIIIIIIIIIIIIIIIIIA4I2AAAAA4AAAA4I
IIIIIIIIIIIIIIIIIIIIIIIIIIIIIIIIIIIIIIIIIIIIIIIIA4I2AAAAA4AAAA44
IIIIIIIIIIIIIIIIIIIIIIIIIIIIIIIIIIIIIIIIIIIIIIIIA4IAAAAAA4AAAA44
IIIIIIIIIIIIIIIIIIIIIIIIIIIIIIIIIIIIIIIIIIIIIIIIA4IAAAAAA4AAAA24
IIIIIIIIIIIIIIIIIIIIIIIIIIIIIIIIIIIIIIIIIIIIIIIIA4IAAAAAA2AAAA24
IIIIIIIIIIIIIIIIIIIIIIIIIIIIIIIIIIIIIIIIIIIIIIIIA4IAAAAAA2AAAAA2
IIIIIIIIIIIIIIIIIIIIIIIIIIIIIIIIIIIIIIIIIIIIIIIIA4IAAAAAA2AAAAAA
IIIIIIIIIIIIIIIIIIIIIIIIIIIIIIIIIIIIIIIIIIIIIIIIA44AAAAAA2AAAAAA
IIIIIIIIIIIIIIIIIIIIIIIIIIIIIIIIIIIIIIIIIIIIIIIIA44AAAAAA2AIAAAA
IIIIIIIIIIIIIIIIIIIIIIIIIIIIIIIIIIIIIIIIIIIIIIIIA44AAAAAA2AIAIAA
IIIIIIIIIIIIIIIIIIIIIIIIIIIIIIIIIIIIIIIIIIIIIIIIA44AAAAAA2IIAIAA
IIIIIIIIIIIIIIIIIIIIIIIIIIIIIIIIIIIIIIIIIIIIIIIII44AAAAAA2IIAIAA
IIIIIIIIIIIIIIIIIIIIIIIIIIIIIIIIIIIIIIIIIIIIIIIII44AAAAAA2IIAIIA
IIIIIIIIIIIIIIIIIIIIIIIIIIIIIIIIIIIIIIIIIIIIIIIIA44AAAAAA244AIIA
IIIIIIIIIIIIIIIIIIIIIIIIIIIIIIIIIIIIIIIIIIIIIIIIA44AAAAAA244AIAA
IIIIIIIIIIIIIIIIIIIIIIIIIIIIIIIIIIIIIIIIIIIIIIIIA44AAAAAA244A4AA
IIIIIIIIIIIIIIIIIIIIIIIIIIIIIIIIIIIIIIIIIIIIIIIIA44AAAAAA2A4A4AA
IIIIIIIIIIIIIIIIIIIIIIIIIIIIIIIIIIIIIIIIIIIIIIIIA44AAAAAA2AAA4AA
IIIIIIIIIIIIIIIIIIIIIIIIIIIIIIIIIIIIIIIIIIIIIIIIA44AAAAAA2AAAAAA
IIIIIIIIIIIIIIIIIIIIIIIIIIIIIIIIIIIIIIIIIIIIIIIIA44AAAAAAAAAAAAA
IIIIIIIIIIIIIIIIIIIIIIIIIIIIIIIIIIII4III44III4I4A44AAAAAAAAAAAAA
IIIIIIIIIIIIIIIIIIIIIIIIIIIIIIIIIIII44II444II444A44AAAAAAAAAAAAA
IIIIIIIIIIIIIIIIIIIIIIIIII4III44III444II44444444A44AAAAAAAAAAAAA
IIIIIIIIIIIIIIIIIIIIIIIIII44II444II4444I44444444A44AAAAAAAAAAAAA
IIIIIIIIIIIIIIIIIIIIIIIIII444I4444I4444444444444A44AAAAAAAAAAAAA
IIIIIIIIIIIIIIIIIIIIIIIIII4444444444444444444444A44AAAAAAAAAAAAA
IIIIIIIIIIIIIIIIIIIIIIIIII4444444444444444444444A4IAAAAAAAAAAAAA
IIIIIIIIIIIIIIIIIIIIIIIIII4444444444444444444444A44AAAAAAAAAAAAA
IIIIIIIIIIIIIIIIIIIIII4III4444444444444444444444A24AAAAAAAAAAAAA
IIIIIIIIIIIIIIIIIIIIII4II44444444444444444444444A24AAAAAAAAAAAAA
IIIIIIIIIIIIIIIIIIIIII4II44444444444444444444444A24AAAAAIAAAAAAA
IIIIIIIIIIIIIIIIIIIIII4II44444444444444444444444I24AAAAAIAAAAAAA
IIIIIIIIIIIIIIIIIIIIII4II44444444444444444444444I24AAAAA4AAAAAAA
IIIIIIIIIIIIIIIIIIIIII4II44444444444444444444444I24AAAAAAAAAAAAA
IIIIIIIIIIIIIIIIIIIIII4II44444444444444444444444A24AAAAAAAAAAAAA
IIIIIIIIIIIIIIIIIIIIII4II44444444444444444444444A2AAAAAAAAAAAAAA
IIIIIIIIIIIIIIIIIIIIII4II44444444444444444444444A2AAIAAAAAAAAAAA
IIIIIIIIIIIIIIIIIIIIII4II44444444444444444444444A2AAIAAAIAAAAAAA
IIIIIIIIIIIIIIIIIIIIII4II44444444444444444444444A2AAAAAAIAAAAAAA
IIIIIIIIIIIIIIIIIIIIII4II44444444444444444444444A2AAAAAA2AAAAAAA
IIIIIIIIIIIIIIIIIIIIII4II44444444444444444444444A2AAAAAAIAAAAAAA
IIIIIIIIIIIIIIIIIIIIII4II44444444444444444444444A2AAAAAA4AAAAAAA
IIIIIIIIIIIIIIIIIIIIII4II44444444444444444444444A2AAAAAAAAAAAAAA
IIIIIIIIIIIIIIIIIIIIII4II44444444444444444444444A2AAAAAAAAAAAAIA
IIIIIIIIIIIIIIIIIIIIII4II44444444444444444444444A2AAAAAAAAAAAA4A
IIIIIIIIIIIIIIIIIIIIII4II44444444444444444444444I2AAAAAAAAAAAA4A
IIIIIIIIIIIIIIIIIIIIII4II44444444444444444444444I2AIAAAAAAAAAA4A
IIIIIIIIIIIIIIIIIIIIII4II44444444444444444444444I2AIAAAAAAIAAA4A
IIIIIIIIIIIIIIIIIIIIII4II44444444444444444444444I2AIAAAAAA4AAA4A
IIIIIIIIIIIIIIIIIIIIII4II4444444444444444444444442AIAAAAAA4AAA4A
IIIIIIIIIIIIIIIIIIIIII4II4444444444444444444444442AAAAAAAA4AAA4A
IIIIIIIIIIIIIIIIIIIIII4II4444444444444444444444442AAAAAAAAAAAA4A
IIIIIIIIIIIIIIIIIIIIII4II44444444444444444444444A2AAAAAAAAAAAA4A
IIIIIIIIIIIIIIIIIIIIII4II44444444444444444444444A2AAAAAAAAAAAAAA
IIIIIIIIIIIIIIIIIIIIII4II44444444444444444444444A2AIAAAAAAAAAAAA
IIIIIIIIIIIIIIIIIIIIII4II44444444444444444444444A2A2AAAAAAAAAAAA
IIIIIIIIIIIIIIIIIIIIII4II44444444444444444444444A2AAAAAAAAAAAAAA
IIIIIIIIIIIIIIIIIIIIII4II44444444444444444444444A2AAAAIAAAAAAAAA
IIIIIIIIIIIIIIIIIIIIII4II44444444444444444444444A2AAAAIIAAAAAAAA
IIIIIIIIIIIIIIIIIIIIII4II44444444444444444444444A2AAIAIIAAAAAAAA
IIIIIIIIIIIIIIIIIIIIII4II44444444444444444444444A2AAIAIIAAAAAIAA
IIIIIIIIIIIIIIIIIIIIII4II44444444444444444444444A2AAIIIIAAAAAIAA
IIIIIIIIIIIIIIIIIIIIII4II44444444444444444444444A2AAIIIIAAAAA4AA
IIIIIIIIIIIIIIIIIIIIII4II44444444444444444444444A2AAIA4IAAAAA4AA
IIIIIIIIIIIIIIIIIIIIII4II44444444444444444444444A2AAIA4AAAAAA4AA
IIIIIIIIIIIIIIIIIIIIII4II44444444444444444444444A2AAIA4AAAAAAAAA
IIIIIIIIIIIIIIIIIIIIII4II44444444444444444444444A2AAAA4AAAAAAAAA
IIIIIIIIIIIIIIIIIIIIII4II44444444444444444444444A2AAAAAAAAAAAAAA
IIIIIIIIIIIIIIIIIIIIII4II44444444444444444444444A2AAAAAAAAAAAAIA
IIIIIIIIIIIIIIIIIIIIII4II44444444444444444444444A2AAAAAAAAAAAA2A
IIIIIIIIIIIIIIIIIIIIII4II44444444444444444444444A2IAAAAAAAAAAA2A
IIIIIIIIIIIIIIIIIIIIII4II44444444444444444444444I2IAAAAAAAAAAA2A
IIIIIIIIIIIIIIIIIIIIII4II44444444444444444444444I2IAAAAAAAAAAAAA
IIIIIIIIIIIIIIIIIIIIII4II44444444444444444444444A2IAAAAAAAAAAAAA
IIIIIIIIIIIIIIIIIIIIII4II44444444444444444444444A24AAAAAAAAAAAAA
IIIIIIIIIIIIIIIIIIIIII4II44444444444444444444444A22AAAAAAAAAAAAA
IIIIIIIIIIIIIIIIIIIIII4II44444444444444444444444A22AAAAAAAAAIAAA
IIIIIIIIIIIIIIIIIIIIII4II44444444444444444444444A22AAIAAAAAAIAAA
IIIIIIIIIIIIIIIIIIIIII4II44444444444444444444444A22AA2AAAAAAIAAA
IIIIIIIIIIIIIIIIIIIIII4II44444444444444444444444A22AA2AAAAAA2AAA
IIIIIIIIIIIIIIIIIIIIII4II44444444444444444444444A22AA2IAAAAA2AAA
IIIIIIIIIIIIIIIIIIIIII4II44444444444444444444444A22AA22AAAAA2AAA
IIIIIIIIIIIIIIIIIIIIII4II44444444444444444444444A22AAA2AAAAA2AAA
IIIIIIIIIIIIIIIIIIIIII4II44444444444444444444444A22AAA2AIAAA2AAA
IIIIIIIIIIIIIIIIIIIIII4II44444444444444444444444A22AAA2AIIAA2AAA
IIIIIIIIIIIIIIIIIIIIII4II44444444444444444444444A22AAA2IIIAA2AAA
IIIIIIIIIIIIIIIIIIIIII4II44444444444444444444444A22AAA2222AA2AAA
IIIIIIIIIIIIIIIIIIIIII4II44444444444444444444444A22AAA2222IA2AAA
IIIIIIIIIIIIIIIIIIIIII4II44444444444444444444444A22AAA22222A2AAA
IIIIIIIIIIIIIIIIIIIIII4II44444444444444444444444A22AAA22222AAAAA
IIIIIIIIIIIIIIIIIIIIII4II44444444444444444444444A22AAA222A2AAAAA
IIIIIIIIIIIIIIIIIIIIII4II44444444444444444444444A22AAA2A2A2AAAAA
IIIIIIIIIIIIIIIIIIIIII4II44444444444444444444444A22AAA2AAA2AAAAA
IIIIIIIIIIIIIIIIIIIIII4II44444444444444444444444A22AAA2AAAAAAAAA
IIIIIIIIIIIIIIIIIIIIII4II44444444444444444444444A22AAAAAAAAAAAAA
IIIIIIIIIIIIIIIIIIIIII4II44444444444444444444444A22AAAAAAAAAAIAA
IIIIIIIIIIIIIIIIIIIIII4II44444444444444444444444A22AAAAAAAAAA2AA
IIIIIIIIIIIIIIIIIIIIII4II44444444444444444444444A22AAAAAAAAAAAAA
IIIIIIIIIIIIIIIIIIIIII4II44444444444444444444444A22AAAAAAAAAIAAA
IIIIIIIIIIIIIIIIIIIIII4II44444444444444444444444A22AAAAIAAAAIAAA
IIIIIIIIIIIIIIIIIIIIII4II44444444444444444444444A22AAAAIAAAAIIAA
IIIIIIIIIIIIIIIIIIIIII4II44444444444444444444444A22AAIAIAAAAIIAA
IIIIIIIIIIIIIIIIIIIIII4II44444444444444444444444A22AAIAIAAAAI4AA
IIIIIIIIIIIIIIIIIIIIII4II44444444444444444444444A22AAIAIAAAA44AA
IIIIIIIIIIIIIIIIIIIIII4II44444444444444444444444A22AAIAAAAAA44AA
IIIIIIIIIIIIIIIIIIIIII4II44444444444444444444444A22AAIAAAAAA4AAA
IIIIIIIIIIIIIIIIIIIIII4II44444444444444444444444A22AAIAAAAAAAAAA
IIIIIIIIIIIIIIIIIIIIII4II44444444444444444444444A22AAAAAAAAAAAAA
IIIIIIIIIIIIIIIIIIIIII4II44444444444444444444444A22AAIAAAAAAAAAA
IIIIIIIIIIIIIIIIIIIIII4II44444444444444444444444A22AAAAAAAAAAAAA
IIIIIIIIIIIIIIIIIIIIII4II44444444444444444444444A22AAAAAAIAAAAAA
IIIIIIIIIIIIIIIIIIIIII4II44444444444444444444444A22AAAAAAIAAIAAA
IIIIIIIIIIIIIIIIIIIIII4II44444444444444444444444A22AAAAAA4AAIAAA
IIIIIIIIIIIIIIIIIIIIII4II44444444444444444444444A22AAAAAA4AA4AAA
IIIIIIIIIIIIIIIIIIIIII4II44444444444444444444444A22AAAAAAAAA4AAA
IIIIIIIIIIIIIIIIIIIIII4II44444444444444444444444A2AAAAAAAAAA2AAA
IIIIIIIIIIIIIIIIIIIIII4II44444444444444444444444A2AAAAAAAAAAAAAA
IIIIIIIIIIIIIIIIIIIIII4II44444444444444444444444A2AAAAAAAAAAAAIA
IIIIIIIIIIIIIIIIIIIIII4II44444444444444444444444I2AAAAAAAAAAAAIA
IIIIIIIIIIIIIIIIIIIIII4II44444444444444444444444I2AIAAAAAAAAAAIA
IIIIIIIIIIIIIIIIIIIIII4II44444444444444444444444I2AIAIAAAAAAAAIA
IIIIIIIIIIIIIIIIIIIIII4II44444444444444444444444I2AIAIAAIAAAAAIA
IIIIIIIIIIIIIIIIIIIIII4II44444444444444444444444I2AIAIAAIAIAAAIA
IIIIIIIIIIIIIIIIIIIIII4II44444444444444444444444I2AAAIAA4A4AAAIA
IIIIIIIIIIIIIIIIIIIIII4II4444444444444444444444442AAA4AA4A4AAAIA
IIIIIIIIIIIIIIIIIIIIII4II4444444444444444444444442AAA4AA4A4AAA4A
IIIIIIIIIIIIIIIIIIIIII4II4444444444444444444444442AAA4AAAA4AAA4A
IIIIIIIIIIIIIIIIIIIIII4II44444444444444444444444A2AAA4AAAA4AAA4A
IIIIIIIIIIIIIIIIIIIIII4II44444444444444444444444A2AAAAAAAA4AAA4A
IIIIIIIIIIIIIIIIIIIIII4II44444444444444444444444A2AAAAAAAAAAAA4A
IIIIIIIIIIIIIIIIIIIIII4II44444444444444444444444A2AAAAAAAAAAAA2A
IIIIIIIIIIIIIIIIIIIIII4II44444444444444444444444A2AAAAAAAAAAAAAA
IIIIIIIIIIIIIIIIIIIIII4II44444444444444444444444A2AAAAIAAAAAAAAA
IIIIIIIIIIIIIIIIIIIIII4II44444444444444444444444A2AAAAAAAAAAAAAA
IIIIIIIIIIIIIIIIIIIIII4II44444444444444444444444A2AAAAIAAAAAAAAA
IIIIIIIIIIIIIIIIIIIIII4II44444444444444444444444A2AAAA2AAAAAAAAA
IIIIIIIIIIIIIIIIIIIIII4II44444444444444444444444A2AAAI2AAAAAAAAA
IIIIIIIIIIIIIIIIIIIIII4II44444444444444444444444A2AAAA2AAAAAAAAA
IIIIIIIIIIIIIIIIIIIIII4II44444444444444444444444A2AAAA2AIAAAAAAA
IIIIIIIIIIIIIIIIIIIIII4II44444444444444444444444A2AAAA2A2AAAAAAA
IIIIIIIIIIIIIIIIIIIIII4II44444444444444444444444A2AAAA2AAAAAAAAA
IIIIIIIIIIIIIIIIIIIIII4II44444444444444444444444A2AAAAAAAAAAAAAA
IIIIIIIIIIIIIIIIIIIIII4II44444444444444444444444A2AAAAAAAAAAAAIA
IIIIIIIIIIIIIIIIIIIIII4II44444444444444444444444A2AAAAAAAAAAAA4A
IIIIIIIIIIIIIIIIIIIIII4II44444444444444444444444A2AAAAAAAAAAAA2A
IIIIIIIIIIIIIIIIIIIIII4II44444444444444444444444A2AAAAAAAAAAAAAA
IIIIIIIIIIIIIIIIIIIIII4II44444444444444444444444A2AAAAAAAAAAAAIA
IIIIIIIIIIIIIIIIIIIIII4II44444444444444444444444A2AAAAAAAAAAAA4A
IIIIIIIIIIIIIIIIIIIIII4II44444444444444444444444A2AAAAAAAAAAAA2A
IIIIIIIIIIIIIIIIIIIIII4II44444444444444444444444A2AAAAAAAAAAIA2A
IIIIIIIIIIIIIIIIIIIIII4II44444444444444444444444A2AAAAAAAAAA4A2A
IIIIIIIIIIIIIIIIIIIIII4II44444444444444444444444A2AAAAAAAAAAAA2A
IIIIIIIIIIIIIIIIIIIIII4II44444444444444444444444A2AAAAAAAAAAAAAA
IIIIIIIIIIIIIIIIIIIIII4II44444444444444444444444A2AAAAAAAAAAAIAA
IIIIIIIIIIIIIIIIIIIIII4II44444444444444444444444A2AAAAAAAAAAA2AA
IIIIIIIIIIIIIIIIIIIIII4II44444444444444444444444I2AAAAAAAAAAA2AA
IIIIIIIIIIIIIIIIIIIIII4II44444444444444444444444I2AAAAAAAAAAAAAA
IIIIIIIIIIIIIIIIIIIIII4II44444444444444444444444A2AAAAAAAAAAAAAA
IIIIIIIIIIIIIIIIIIIIII4II44444444444444444444444A2AIAAAAAAAAAAAA
IIIIIIIIIIIIIIIIIIIIII4II44444444444444444444444A2AIAAAAAAAAAAIA
IIIIIIIIIIIIIIIIIIIIII4II44444444444444444444444A2A2AAAAAAAAAA4A
IIIIIIIIIIIIIIIIIIIIII4II44444444444444444444444A2AAAAAAAAAAAA4A
IIIIIIIIIIIIIIIIIIIIII4II44444444444444444444444A2AAAAAAAAAAAA2A
IIIIIIIIIIIIIIIIIIIIII4II44444444444444444444444A2AAAAAAAAAAAAAA
IIIIIIIIIIIIIIIIIIIIII4II44444444444444444444444A2AAAAAAAAAAAAIA
IIIIIIIIIIIIIIIIIIIIII4II44444444444444444444444A2AAAAAAAAAAAA2A
IIIIIIIIIIIIIIIIIIIIII4II44444444444444444444444A2AAAAAAAAAAAAAA
IIIIIIIIIIIIIIIIIIIIII4II44444444444444444444444A2AAAIAAAAAAAAAA
IIIIIIIIIIIIIIIIIIIIII4II44444444444444444444444A2AAA4AAAAAAAAAA
IIIIIIIIIIIIIIIIIIIIII4II44444444444444444444444A2AAA2AAAAAAAAAA
IIIIIIIIIIIIIIIIIIIIII4II44444444444444444444444A2AAAAAAAAAAAAAA
IIIIIIIIIIIIIIIIIIIIII4II44444444444444444444444A2AAAAAAAAAAAIAA
IIIIIIIIIIIIIIIIIIIIII4II44444444444444444444444A2AAAAAAAAAAA4AA
IIIIIIIIIIIIIIIIIIIIII4II44444444444444444444444A2AAAAAAAAAAA2AA
IIIIIIIIIIIIIIIIIIIIII4II44444444444444444444444A2AAAAAAAAAAAAAA
IIIIIIIIIIIIIIIIIIIIII4II44444444444444444444444A2AAAAAAAAAAAAAI
IIIIIIIIIIIIIIIIIIIIII4II44444444444444444444444A2AAAAAAAAAAAAA4
IIIIIIIIIIIIIIIIIIIIII4II44444444444444444444444A2AAAAAAAAAAAAA2
IIIIIIIIIIIIIIIIIIIIII4II44444444444444444444444A2AAAAAAAAAAAAAA
IIIIIIIIIIIIIIIIIIIIII4II44444444444444444444444A2AAAAAAAAAAAIAA
IIIIIIIIIIIIIIIIIIIIII4II44444444444444444444444A2AAAAAAAAAAA2AA
IIIIIIIIIIIIIIIIIIIIII4II44444444444444444444444A2AAAAAAAAAAAAAA
IIIIIIIIIIIIIIIIIIIIII4II44444444444444444444444A2AAAAAAAAAAAAIA
IIIIIIIIIIIIIIIIIIIIII4II44444444444444444444444A2AAAAAAAAAAAA2A
IIIIIIIIIIIIIIIIIIIIII4II44444444444444444444444I2AAAAAAAAAAAA2A
IIIIIIIIIIIIIIIIIIIIII4II44444444444444444444444I2AAAAAAAAAAAAAA
IIIIIIIIIIIIIIIIIIIIII4II44444444444444444444444A2AAAAAAAAAAAAAA
[MLOP] Prefetch Degree Mean: 6.80063
[MLOP] Prefetch Degree SD: 3.21313
[MLOP] Max Score Left Mean (%): 31.98987
[MLOP] Max Score Left SD (%): 13.64012
[MLOP] Max Score Right Mean (%): 59.87785
[MLOP] Max Score Right SD (%): 16.59034

Channel_0_RQ_row_buffer_hit 191539
Channel_0_RQ_row_buffer_miss 805927
Channel_0_WQ_row_buffer_hit 119845
Channel_0_WQ_row_buffer_miss 738258
Channel_0_WQ_full 0
Channel_0_dbus_congested 1588906

avg_congested_cycle 24

DRAM_bw_pochs 5676112
DRAM_bw_level_0 5428750
DRAM_bw_level_1 96541
DRAM_bw_level_2 68038
DRAM_bw_level_3 82783
