*************************************************
   ChampSim Multicore Out-of-Order Simulator
   Last compiled: Dec 11 2024 17:59:53
*************************************************
parsing config file: /home/functionmain/桌面/Pythia/config/mlop.ini

trace_0 /home/functionmain/桌面/Pythia/traces/445.gobmk-30B.champsimtrace.xz
adding L2C_PREFETCHER: MLOP
Initialize SHIP state
warmup_instructions 100000000
simulation_instructions 500000000
champsim_seed 165
measure_ipc 0
measure_ipc_epoch 1000
measure_dram_bw 1
measure_dram_bw_epoch 256
measure_cache_acc 1
measure_cache_acc_epoch 1024
l1d_perfect 0
l2c_perfect 0
llc_perfect 0
l1d_semi_perfect 0
l2c_semi_perfect 0
llc_semi_perfect 0
semi_perfect_cache_page_buffer_size 64

num_cpus 1
cpu_freq 4000
dram_io_freq 300
page_size 4096
block_size 64
max_read_per_cycle 8
max_fill_per_cycle 1
dram_channels 1
log2_dram_channels 0
dram_ranks 1
dram_banks 8
dram_rows 65536
dram_columns 128
dram_row_size 8
dram_size 4096
dram_pages 1048576

fetch_width 6
decode_width 6
exec_width 4
lq_width 2
sq_width 2
retire_width 4
scheduler_size 128
branch_mispredict_penalty 20
rob_size 256
lq_size 72
sq_size 56
num_instr_destinations_sparc 4
num_instr_destinations 2
num_instr_sources 4

itlb_set 16
itlb_way 8
itlb_rq_size 16
itlb_wq_size 16
itlb_pq_size 0
itlb_mshr_size 8
itlb_latency 1

dtlb_set 16
dtlb_way 4
dtlb_rq_size 16
dtlb_wq_size 16
dtlb_pq_size 0
dtlb_mshr_size 8
dtlb_latency 1

stlb_set 128
stlb_way 12
stlb_rq_size 32
stlb_wq_size 32
stlb_pq_size 0
stlb_mshr_size 16
stlb_latency 8

l1i_size 32
l1i_set 64
l1i_way 8
l1i_rq_size 64
l1i_wq_size 64
l1i_pq_size 8
l1i_mshr_size 8
l1i_latency 1

l1d_size 32
l1d_set 64
l1d_way 8
l1d_rq_size 64
l1d_wq_size 64
l1d_pq_size 8
l1d_mshr_size 16
l1d_latency 4

l2c_size 256
l2c_set 512
l2c_way 8
l2c_rq_size 32
l2c_wq_size 32
l2c_pq_size 32
l2c_mshr_size 32
l2c_latency 10

llc_size 2048
llc_set 2048
llc_way 16
llc_rq_size 32
llc_wq_size 32
llc_pq_size 32
llc_mshr_size 64
llc_latency 20

dram_channel_width 8
dram_wq_size 64
dram_rq_size 64
tRP 15
tRCD 15
tCAS 12.5
dram_dbus_turn_around_time 30
dram_write_high_wm 56
dram_write_low_wm 48
min_dram_writes_per_switch 16
dram_mtps 300
dram_dbus_return_time 106

mlop_pref_degree 16
mlop_num_updates 500
mlop_l1d_thresh 2
mlop_l2c_thresh 0.75
mlop_llc_thresh 0.3
mlop_debug_level 0
mlop_blocks_in_cache 4096
mlop_blocks_in_zone 64
mlop_amt_size 2048
mlop_PF_DEGREE 16
mlop_NUM_UPDATES 500
mlop_L1D_THRESH 1000
mlop_L2C_THRESH 375
mlop_LLC_THRESH 150
mlop_ORIGIN 63
mlop_MAX_OFFSET 63
mlop_MIN_OFFSET -63
mlop_ORIGIN 63
mlop_NUM_OFFSETS 127


Heartbeat CPU  0 instructions:    1000000 cycles:     861996 heartbeat IPC: 1.16010 cumulative IPC: 1.16010 (Simulation time: 0 hr 0 min 2 sec) 
Heartbeat CPU  0 instructions:    2000000 cycles:    1864456 heartbeat IPC: 0.99755 cumulative IPC: 1.07270 (Simulation time: 0 hr 0 min 3 sec) 
Heartbeat CPU  0 instructions:    3000001 cycles:    2990060 heartbeat IPC: 0.88841 cumulative IPC: 1.00332 (Simulation time: 0 hr 0 min 5 sec) 
Heartbeat CPU  0 instructions:    4000000 cycles:    4090835 heartbeat IPC: 0.90845 cumulative IPC: 0.97780 (Simulation time: 0 hr 0 min 6 sec) 
Heartbeat CPU  0 instructions:    5000001 cycles:    5173126 heartbeat IPC: 0.92397 cumulative IPC: 0.96653 (Simulation time: 0 hr 0 min 8 sec) 
Heartbeat CPU  0 instructions:    6000000 cycles:    6295937 heartbeat IPC: 0.89062 cumulative IPC: 0.95300 (Simulation time: 0 hr 0 min 9 sec) 
Heartbeat CPU  0 instructions:    7000001 cycles:    7363127 heartbeat IPC: 0.93704 cumulative IPC: 0.95068 (Simulation time: 0 hr 0 min 11 sec) 
Heartbeat CPU  0 instructions:    8000000 cycles:    8565891 heartbeat IPC: 0.83142 cumulative IPC: 0.93394 (Simulation time: 0 hr 0 min 12 sec) 
Heartbeat CPU  0 instructions:    9000000 cycles:    9685312 heartbeat IPC: 0.89332 cumulative IPC: 0.92924 (Simulation time: 0 hr 0 min 14 sec) 
Heartbeat CPU  0 instructions:   10000003 cycles:   10815081 heartbeat IPC: 0.88514 cumulative IPC: 0.92464 (Simulation time: 0 hr 0 min 15 sec) 
Heartbeat CPU  0 instructions:   11000000 cycles:   11872823 heartbeat IPC: 0.94541 cumulative IPC: 0.92649 (Simulation time: 0 hr 0 min 17 sec) 
Heartbeat CPU  0 instructions:   12000000 cycles:   13017026 heartbeat IPC: 0.87397 cumulative IPC: 0.92187 (Simulation time: 0 hr 0 min 18 sec) 
Heartbeat CPU  0 instructions:   13000001 cycles:   14156478 heartbeat IPC: 0.87762 cumulative IPC: 0.91831 (Simulation time: 0 hr 0 min 20 sec) 
Heartbeat CPU  0 instructions:   14000000 cycles:   15083181 heartbeat IPC: 1.07909 cumulative IPC: 0.92819 (Simulation time: 0 hr 0 min 21 sec) 
Heartbeat CPU  0 instructions:   15000001 cycles:   16047176 heartbeat IPC: 1.03735 cumulative IPC: 0.93474 (Simulation time: 0 hr 0 min 22 sec) 
Heartbeat CPU  0 instructions:   16000000 cycles:   17176191 heartbeat IPC: 0.88573 cumulative IPC: 0.93152 (Simulation time: 0 hr 0 min 24 sec) 
Heartbeat CPU  0 instructions:   17000000 cycles:   18271722 heartbeat IPC: 0.91280 cumulative IPC: 0.93040 (Simulation time: 0 hr 0 min 25 sec) 
Heartbeat CPU  0 instructions:   18000003 cycles:   19388166 heartbeat IPC: 0.89570 cumulative IPC: 0.92840 (Simulation time: 0 hr 0 min 27 sec) 
Heartbeat CPU  0 instructions:   19000001 cycles:   20469336 heartbeat IPC: 0.92492 cumulative IPC: 0.92822 (Simulation time: 0 hr 0 min 28 sec) 
Heartbeat CPU  0 instructions:   20000000 cycles:   21561150 heartbeat IPC: 0.91591 cumulative IPC: 0.92759 (Simulation time: 0 hr 0 min 30 sec) 
Heartbeat CPU  0 instructions:   21000000 cycles:   22753600 heartbeat IPC: 0.83861 cumulative IPC: 0.92293 (Simulation time: 0 hr 0 min 31 sec) 
Heartbeat CPU  0 instructions:   22000003 cycles:   23880968 heartbeat IPC: 0.88702 cumulative IPC: 0.92124 (Simulation time: 0 hr 0 min 33 sec) 
Heartbeat CPU  0 instructions:   23000001 cycles:   24931075 heartbeat IPC: 0.95228 cumulative IPC: 0.92254 (Simulation time: 0 hr 0 min 34 sec) 
Heartbeat CPU  0 instructions:   24000000 cycles:   26047895 heartbeat IPC: 0.89540 cumulative IPC: 0.92138 (Simulation time: 0 hr 0 min 36 sec) 
Heartbeat CPU  0 instructions:   25000000 cycles:   26927137 heartbeat IPC: 1.13734 cumulative IPC: 0.92843 (Simulation time: 0 hr 0 min 37 sec) 
Heartbeat CPU  0 instructions:   26000000 cycles:   27897366 heartbeat IPC: 1.03068 cumulative IPC: 0.93199 (Simulation time: 0 hr 0 min 38 sec) 
Heartbeat CPU  0 instructions:   27000002 cycles:   29000037 heartbeat IPC: 0.90689 cumulative IPC: 0.93103 (Simulation time: 0 hr 0 min 40 sec) 
Heartbeat CPU  0 instructions:   28000000 cycles:   30120743 heartbeat IPC: 0.89229 cumulative IPC: 0.92959 (Simulation time: 0 hr 0 min 41 sec) 
Heartbeat CPU  0 instructions:   29000003 cycles:   31186778 heartbeat IPC: 0.93806 cumulative IPC: 0.92988 (Simulation time: 0 hr 0 min 43 sec) 
Heartbeat CPU  0 instructions:   30000002 cycles:   32279290 heartbeat IPC: 0.91532 cumulative IPC: 0.92939 (Simulation time: 0 hr 0 min 44 sec) 
Heartbeat CPU  0 instructions:   31000003 cycles:   33381677 heartbeat IPC: 0.90712 cumulative IPC: 0.92865 (Simulation time: 0 hr 0 min 46 sec) 
Heartbeat CPU  0 instructions:   32000000 cycles:   34481358 heartbeat IPC: 0.90935 cumulative IPC: 0.92804 (Simulation time: 0 hr 0 min 47 sec) 
Heartbeat CPU  0 instructions:   33000001 cycles:   35468609 heartbeat IPC: 1.01291 cumulative IPC: 0.93040 (Simulation time: 0 hr 0 min 49 sec) 
Heartbeat CPU  0 instructions:   34000001 cycles:   36606510 heartbeat IPC: 0.87881 cumulative IPC: 0.92880 (Simulation time: 0 hr 0 min 50 sec) 
Heartbeat CPU  0 instructions:   35000003 cycles:   37678854 heartbeat IPC: 0.93254 cumulative IPC: 0.92890 (Simulation time: 0 hr 0 min 52 sec) 
Heartbeat CPU  0 instructions:   36000000 cycles:   38870456 heartbeat IPC: 0.83920 cumulative IPC: 0.92615 (Simulation time: 0 hr 0 min 53 sec) 
Heartbeat CPU  0 instructions:   37000002 cycles:   39986474 heartbeat IPC: 0.89604 cumulative IPC: 0.92531 (Simulation time: 0 hr 0 min 55 sec) 
Heartbeat CPU  0 instructions:   38000000 cycles:   41036463 heartbeat IPC: 0.95239 cumulative IPC: 0.92601 (Simulation time: 0 hr 0 min 56 sec) 
Heartbeat CPU  0 instructions:   39000001 cycles:   41930006 heartbeat IPC: 1.11914 cumulative IPC: 0.93012 (Simulation time: 0 hr 0 min 57 sec) 
Heartbeat CPU  0 instructions:   40000000 cycles:   42887896 heartbeat IPC: 1.04396 cumulative IPC: 0.93266 (Simulation time: 0 hr 0 min 59 sec) 
Heartbeat CPU  0 instructions:   41000000 cycles:   43989247 heartbeat IPC: 0.90798 cumulative IPC: 0.93205 (Simulation time: 0 hr 1 min 0 sec) 
Heartbeat CPU  0 instructions:   42000000 cycles:   45114307 heartbeat IPC: 0.88884 cumulative IPC: 0.93097 (Simulation time: 0 hr 1 min 2 sec) 
Heartbeat CPU  0 instructions:   43000003 cycles:   46181918 heartbeat IPC: 0.93667 cumulative IPC: 0.93110 (Simulation time: 0 hr 1 min 3 sec) 
Heartbeat CPU  0 instructions:   44000000 cycles:   47301854 heartbeat IPC: 0.89291 cumulative IPC: 0.93020 (Simulation time: 0 hr 1 min 5 sec) 
Heartbeat CPU  0 instructions:   45000001 cycles:   48335599 heartbeat IPC: 0.96736 cumulative IPC: 0.93099 (Simulation time: 0 hr 1 min 6 sec) 
Heartbeat CPU  0 instructions:   46000000 cycles:   49422036 heartbeat IPC: 0.92044 cumulative IPC: 0.93076 (Simulation time: 0 hr 1 min 8 sec) 
Heartbeat CPU  0 instructions:   47000003 cycles:   50530342 heartbeat IPC: 0.90228 cumulative IPC: 0.93013 (Simulation time: 0 hr 1 min 9 sec) 
Heartbeat CPU  0 instructions:   48000000 cycles:   51499570 heartbeat IPC: 1.03175 cumulative IPC: 0.93205 (Simulation time: 0 hr 1 min 11 sec) 
Heartbeat CPU  0 instructions:   49000000 cycles:   52614124 heartbeat IPC: 0.89722 cumulative IPC: 0.93131 (Simulation time: 0 hr 1 min 12 sec) 
Heartbeat CPU  0 instructions:   50000000 cycles:   53698187 heartbeat IPC: 0.92246 cumulative IPC: 0.93113 (Simulation time: 0 hr 1 min 14 sec) 
Heartbeat CPU  0 instructions:   51000001 cycles:   54765556 heartbeat IPC: 0.93688 cumulative IPC: 0.93124 (Simulation time: 0 hr 1 min 15 sec) 
Heartbeat CPU  0 instructions:   52000000 cycles:   55895261 heartbeat IPC: 0.88519 cumulative IPC: 0.93031 (Simulation time: 0 hr 1 min 17 sec) 
Heartbeat CPU  0 instructions:   53000000 cycles:   57001837 heartbeat IPC: 0.90369 cumulative IPC: 0.92979 (Simulation time: 0 hr 1 min 18 sec) 
Heartbeat CPU  0 instructions:   54000001 cycles:   58198498 heartbeat IPC: 0.83566 cumulative IPC: 0.92786 (Simulation time: 0 hr 1 min 20 sec) 
Heartbeat CPU  0 instructions:   55000002 cycles:   59318191 heartbeat IPC: 0.89310 cumulative IPC: 0.92720 (Simulation time: 0 hr 1 min 21 sec) 
Heartbeat CPU  0 instructions:   56000000 cycles:   60384031 heartbeat IPC: 0.93823 cumulative IPC: 0.92740 (Simulation time: 0 hr 1 min 23 sec) 
Heartbeat CPU  0 instructions:   57000000 cycles:   61472092 heartbeat IPC: 0.91907 cumulative IPC: 0.92725 (Simulation time: 0 hr 1 min 24 sec) 
Heartbeat CPU  0 instructions:   58000001 cycles:   62561381 heartbeat IPC: 0.91803 cumulative IPC: 0.92709 (Simulation time: 0 hr 1 min 26 sec) 
Heartbeat CPU  0 instructions:   59000000 cycles:   63436120 heartbeat IPC: 1.14320 cumulative IPC: 0.93007 (Simulation time: 0 hr 1 min 27 sec) 
Heartbeat CPU  0 instructions:   60000000 cycles:   64555125 heartbeat IPC: 0.89365 cumulative IPC: 0.92944 (Simulation time: 0 hr 1 min 28 sec) 
Heartbeat CPU  0 instructions:   61000000 cycles:   65651381 heartbeat IPC: 0.91220 cumulative IPC: 0.92915 (Simulation time: 0 hr 1 min 30 sec) 
Heartbeat CPU  0 instructions:   62000000 cycles:   66729692 heartbeat IPC: 0.92738 cumulative IPC: 0.92912 (Simulation time: 0 hr 1 min 31 sec) 
Heartbeat CPU  0 instructions:   63000001 cycles:   67747079 heartbeat IPC: 0.98291 cumulative IPC: 0.92993 (Simulation time: 0 hr 1 min 33 sec) 
Heartbeat CPU  0 instructions:   64000000 cycles:   68869586 heartbeat IPC: 0.89086 cumulative IPC: 0.92929 (Simulation time: 0 hr 1 min 34 sec) 
Heartbeat CPU  0 instructions:   65000000 cycles:   69945081 heartbeat IPC: 0.92980 cumulative IPC: 0.92930 (Simulation time: 0 hr 1 min 36 sec) 
Heartbeat CPU  0 instructions:   66000000 cycles:   71001998 heartbeat IPC: 0.94615 cumulative IPC: 0.92955 (Simulation time: 0 hr 1 min 37 sec) 
Heartbeat CPU  0 instructions:   67000000 cycles:   72115558 heartbeat IPC: 0.89802 cumulative IPC: 0.92906 (Simulation time: 0 hr 1 min 39 sec) 
Heartbeat CPU  0 instructions:   68000000 cycles:   73203963 heartbeat IPC: 0.91878 cumulative IPC: 0.92891 (Simulation time: 0 hr 1 min 40 sec) 
Heartbeat CPU  0 instructions:   69000001 cycles:   74312642 heartbeat IPC: 0.90198 cumulative IPC: 0.92851 (Simulation time: 0 hr 1 min 42 sec) 
Heartbeat CPU  0 instructions:   70000000 cycles:   75285576 heartbeat IPC: 1.02782 cumulative IPC: 0.92979 (Simulation time: 0 hr 1 min 43 sec) 
Heartbeat CPU  0 instructions:   71000000 cycles:   76200620 heartbeat IPC: 1.09284 cumulative IPC: 0.93175 (Simulation time: 0 hr 1 min 45 sec) 
Heartbeat CPU  0 instructions:   72000000 cycles:   77300168 heartbeat IPC: 0.90946 cumulative IPC: 0.93143 (Simulation time: 0 hr 1 min 46 sec) 
Heartbeat CPU  0 instructions:   73000001 cycles:   78362283 heartbeat IPC: 0.94152 cumulative IPC: 0.93157 (Simulation time: 0 hr 1 min 48 sec) 
Heartbeat CPU  0 instructions:   74000000 cycles:   79429188 heartbeat IPC: 0.93729 cumulative IPC: 0.93165 (Simulation time: 0 hr 1 min 49 sec) 
Heartbeat CPU  0 instructions:   75000001 cycles:   80371726 heartbeat IPC: 1.06097 cumulative IPC: 0.93316 (Simulation time: 0 hr 1 min 51 sec) 
Heartbeat CPU  0 instructions:   76000000 cycles:   81359755 heartbeat IPC: 1.01212 cumulative IPC: 0.93412 (Simulation time: 0 hr 1 min 52 sec) 
Heartbeat CPU  0 instructions:   77000002 cycles:   82401438 heartbeat IPC: 0.95999 cumulative IPC: 0.93445 (Simulation time: 0 hr 1 min 54 sec) 
Heartbeat CPU  0 instructions:   78000000 cycles:   83352713 heartbeat IPC: 1.05122 cumulative IPC: 0.93578 (Simulation time: 0 hr 1 min 55 sec) 
Heartbeat CPU  0 instructions:   79000003 cycles:   84383389 heartbeat IPC: 0.97024 cumulative IPC: 0.93620 (Simulation time: 0 hr 1 min 57 sec) 
Heartbeat CPU  0 instructions:   80000000 cycles:   85449796 heartbeat IPC: 0.93773 cumulative IPC: 0.93622 (Simulation time: 0 hr 1 min 58 sec) 
Heartbeat CPU  0 instructions:   81000003 cycles:   86538270 heartbeat IPC: 0.91872 cumulative IPC: 0.93600 (Simulation time: 0 hr 2 min 0 sec) 
Heartbeat CPU  0 instructions:   82000000 cycles:   87613259 heartbeat IPC: 0.93024 cumulative IPC: 0.93593 (Simulation time: 0 hr 2 min 1 sec) 
Heartbeat CPU  0 instructions:   83000001 cycles:   88712551 heartbeat IPC: 0.90968 cumulative IPC: 0.93561 (Simulation time: 0 hr 2 min 3 sec) 
Heartbeat CPU  0 instructions:   84000000 cycles:   89751620 heartbeat IPC: 0.96240 cumulative IPC: 0.93592 (Simulation time: 0 hr 2 min 4 sec) 
Heartbeat CPU  0 instructions:   85000000 cycles:   90751325 heartbeat IPC: 1.00030 cumulative IPC: 0.93663 (Simulation time: 0 hr 2 min 6 sec) 
Heartbeat CPU  0 instructions:   86000000 cycles:   91837456 heartbeat IPC: 0.92070 cumulative IPC: 0.93644 (Simulation time: 0 hr 2 min 7 sec) 
Heartbeat CPU  0 instructions:   87000002 cycles:   92924273 heartbeat IPC: 0.92012 cumulative IPC: 0.93625 (Simulation time: 0 hr 2 min 9 sec) 
Heartbeat CPU  0 instructions:   88000000 cycles:   93994466 heartbeat IPC: 0.93441 cumulative IPC: 0.93623 (Simulation time: 0 hr 2 min 10 sec) 
Heartbeat CPU  0 instructions:   89000002 cycles:   95093832 heartbeat IPC: 0.90962 cumulative IPC: 0.93592 (Simulation time: 0 hr 2 min 12 sec) 
Heartbeat CPU  0 instructions:   90000002 cycles:   96181232 heartbeat IPC: 0.91962 cumulative IPC: 0.93573 (Simulation time: 0 hr 2 min 13 sec) 
Heartbeat CPU  0 instructions:   91000001 cycles:   97247718 heartbeat IPC: 0.93766 cumulative IPC: 0.93575 (Simulation time: 0 hr 2 min 15 sec) 
Heartbeat CPU  0 instructions:   92000000 cycles:   98366506 heartbeat IPC: 0.89382 cumulative IPC: 0.93528 (Simulation time: 0 hr 2 min 16 sec) 
Heartbeat CPU  0 instructions:   93000000 cycles:   99405870 heartbeat IPC: 0.96213 cumulative IPC: 0.93556 (Simulation time: 0 hr 2 min 18 sec) 
Heartbeat CPU  0 instructions:   94000001 cycles:  100524125 heartbeat IPC: 0.89425 cumulative IPC: 0.93510 (Simulation time: 0 hr 2 min 19 sec) 
Heartbeat CPU  0 instructions:   95000001 cycles:  101616167 heartbeat IPC: 0.91572 cumulative IPC: 0.93489 (Simulation time: 0 hr 2 min 21 sec) 
Heartbeat CPU  0 instructions:   96000000 cycles:  102705932 heartbeat IPC: 0.91763 cumulative IPC: 0.93471 (Simulation time: 0 hr 2 min 22 sec) 
Heartbeat CPU  0 instructions:   97000001 cycles:  103834227 heartbeat IPC: 0.88629 cumulative IPC: 0.93418 (Simulation time: 0 hr 2 min 24 sec) 
Heartbeat CPU  0 instructions:   98000000 cycles:  104932969 heartbeat IPC: 0.91013 cumulative IPC: 0.93393 (Simulation time: 0 hr 2 min 25 sec) 
Heartbeat CPU  0 instructions:   99000003 cycles:  106004565 heartbeat IPC: 0.93319 cumulative IPC: 0.93392 (Simulation time: 0 hr 2 min 27 sec) 
Heartbeat CPU  0 instructions:  100000000 cycles:  107090129 heartbeat IPC: 0.92118 cumulative IPC: 0.93379 (Simulation time: 0 hr 2 min 28 sec) 

Warmup complete CPU  0 instructions:  100000001 cycles:  107090131 (Simulation time: 0 hr 2 min 28 sec) 

Heartbeat CPU  0 instructions:  101000000 cycles:  109766973 heartbeat IPC: 0.37357 cumulative IPC: 0.37357 (Simulation time: 0 hr 2 min 30 sec) 
Heartbeat CPU  0 instructions:  102000000 cycles:  112420632 heartbeat IPC: 0.37684 cumulative IPC: 0.37520 (Simulation time: 0 hr 2 min 33 sec) 
Heartbeat CPU  0 instructions:  103000000 cycles:  115079100 heartbeat IPC: 0.37616 cumulative IPC: 0.37552 (Simulation time: 0 hr 2 min 35 sec) 
Heartbeat CPU  0 instructions:  104000000 cycles:  117646556 heartbeat IPC: 0.38949 cumulative IPC: 0.37892 (Simulation time: 0 hr 2 min 37 sec) 
Heartbeat CPU  0 instructions:  105000003 cycles:  120397106 heartbeat IPC: 0.36356 cumulative IPC: 0.37574 (Simulation time: 0 hr 2 min 40 sec) 
Heartbeat CPU  0 instructions:  106000001 cycles:  123120568 heartbeat IPC: 0.36718 cumulative IPC: 0.37429 (Simulation time: 0 hr 2 min 42 sec) 
Heartbeat CPU  0 instructions:  107000003 cycles:  125825508 heartbeat IPC: 0.36969 cumulative IPC: 0.37362 (Simulation time: 0 hr 2 min 45 sec) 
Heartbeat CPU  0 instructions:  108000000 cycles:  128656634 heartbeat IPC: 0.35322 cumulative IPC: 0.37095 (Simulation time: 0 hr 2 min 47 sec) 
Heartbeat CPU  0 instructions:  109000000 cycles:  131454020 heartbeat IPC: 0.35748 cumulative IPC: 0.36940 (Simulation time: 0 hr 2 min 49 sec) 
Heartbeat CPU  0 instructions:  110000002 cycles:  134132140 heartbeat IPC: 0.37340 cumulative IPC: 0.36980 (Simulation time: 0 hr 2 min 52 sec) 
Heartbeat CPU  0 instructions:  111000002 cycles:  136714180 heartbeat IPC: 0.38729 cumulative IPC: 0.37132 (Simulation time: 0 hr 2 min 54 sec) 
Heartbeat CPU  0 instructions:  112000000 cycles:  139486541 heartbeat IPC: 0.36070 cumulative IPC: 0.37041 (Simulation time: 0 hr 2 min 56 sec) 
Heartbeat CPU  0 instructions:  113000001 cycles:  142372006 heartbeat IPC: 0.34656 cumulative IPC: 0.36846 (Simulation time: 0 hr 2 min 59 sec) 
Heartbeat CPU  0 instructions:  114000000 cycles:  145210130 heartbeat IPC: 0.35235 cumulative IPC: 0.36726 (Simulation time: 0 hr 3 min 1 sec) 
Heartbeat CPU  0 instructions:  115000000 cycles:  147928694 heartbeat IPC: 0.36784 cumulative IPC: 0.36730 (Simulation time: 0 hr 3 min 3 sec) 
Heartbeat CPU  0 instructions:  116000000 cycles:  150705103 heartbeat IPC: 0.36018 cumulative IPC: 0.36685 (Simulation time: 0 hr 3 min 6 sec) 
Heartbeat CPU  0 instructions:  117000002 cycles:  153441170 heartbeat IPC: 0.36549 cumulative IPC: 0.36677 (Simulation time: 0 hr 3 min 8 sec) 
Heartbeat CPU  0 instructions:  118000000 cycles:  156191651 heartbeat IPC: 0.36357 cumulative IPC: 0.36659 (Simulation time: 0 hr 3 min 11 sec) 
Heartbeat CPU  0 instructions:  119000000 cycles:  158952757 heartbeat IPC: 0.36217 cumulative IPC: 0.36635 (Simulation time: 0 hr 3 min 13 sec) 
Heartbeat CPU  0 instructions:  120000000 cycles:  161796728 heartbeat IPC: 0.35162 cumulative IPC: 0.36559 (Simulation time: 0 hr 3 min 15 sec) 
Heartbeat CPU  0 instructions:  121000000 cycles:  164513354 heartbeat IPC: 0.36810 cumulative IPC: 0.36571 (Simulation time: 0 hr 3 min 18 sec) 
Heartbeat CPU  0 instructions:  122000001 cycles:  167267838 heartbeat IPC: 0.36304 cumulative IPC: 0.36558 (Simulation time: 0 hr 3 min 20 sec) 
Heartbeat CPU  0 instructions:  123000001 cycles:  169961258 heartbeat IPC: 0.37128 cumulative IPC: 0.36583 (Simulation time: 0 hr 3 min 22 sec) 
Heartbeat CPU  0 instructions:  124000000 cycles:  172601469 heartbeat IPC: 0.37876 cumulative IPC: 0.36635 (Simulation time: 0 hr 3 min 25 sec) 
Heartbeat CPU  0 instructions:  125000003 cycles:  175234747 heartbeat IPC: 0.37976 cumulative IPC: 0.36687 (Simulation time: 0 hr 3 min 27 sec) 
Heartbeat CPU  0 instructions:  126000000 cycles:  177900467 heartbeat IPC: 0.37513 cumulative IPC: 0.36718 (Simulation time: 0 hr 3 min 29 sec) 
Heartbeat CPU  0 instructions:  127000001 cycles:  180776850 heartbeat IPC: 0.34766 cumulative IPC: 0.36642 (Simulation time: 0 hr 3 min 32 sec) 
Heartbeat CPU  0 instructions:  128000000 cycles:  183488856 heartbeat IPC: 0.36873 cumulative IPC: 0.36650 (Simulation time: 0 hr 3 min 34 sec) 
Heartbeat CPU  0 instructions:  129000001 cycles:  186347387 heartbeat IPC: 0.34983 cumulative IPC: 0.36590 (Simulation time: 0 hr 3 min 36 sec) 
Heartbeat CPU  0 instructions:  130000000 cycles:  189214375 heartbeat IPC: 0.34880 cumulative IPC: 0.36530 (Simulation time: 0 hr 3 min 39 sec) 
Heartbeat CPU  0 instructions:  131000000 cycles:  191962914 heartbeat IPC: 0.36383 cumulative IPC: 0.36525 (Simulation time: 0 hr 3 min 41 sec) 
Heartbeat CPU  0 instructions:  132000000 cycles:  194725145 heartbeat IPC: 0.36203 cumulative IPC: 0.36515 (Simulation time: 0 hr 3 min 43 sec) 
Heartbeat CPU  0 instructions:  133000001 cycles:  197434073 heartbeat IPC: 0.36915 cumulative IPC: 0.36527 (Simulation time: 0 hr 3 min 46 sec) 
Heartbeat CPU  0 instructions:  134000000 cycles:  200192113 heartbeat IPC: 0.36258 cumulative IPC: 0.36519 (Simulation time: 0 hr 3 min 48 sec) 
Heartbeat CPU  0 instructions:  135000000 cycles:  202981836 heartbeat IPC: 0.35846 cumulative IPC: 0.36500 (Simulation time: 0 hr 3 min 51 sec) 
Heartbeat CPU  0 instructions:  136000000 cycles:  205767881 heartbeat IPC: 0.35893 cumulative IPC: 0.36482 (Simulation time: 0 hr 3 min 53 sec) 
Heartbeat CPU  0 instructions:  137000000 cycles:  208498792 heartbeat IPC: 0.36618 cumulative IPC: 0.36486 (Simulation time: 0 hr 3 min 55 sec) 
Heartbeat CPU  0 instructions:  138000000 cycles:  211112571 heartbeat IPC: 0.38259 cumulative IPC: 0.36531 (Simulation time: 0 hr 3 min 58 sec) 
Heartbeat CPU  0 instructions:  139000002 cycles:  213899062 heartbeat IPC: 0.35888 cumulative IPC: 0.36514 (Simulation time: 0 hr 4 min 0 sec) 
Heartbeat CPU  0 instructions:  140000000 cycles:  216646406 heartbeat IPC: 0.36399 cumulative IPC: 0.36511 (Simulation time: 0 hr 4 min 2 sec) 
Heartbeat CPU  0 instructions:  141000003 cycles:  219387836 heartbeat IPC: 0.36477 cumulative IPC: 0.36510 (Simulation time: 0 hr 4 min 5 sec) 
Heartbeat CPU  0 instructions:  142000000 cycles:  222064887 heartbeat IPC: 0.37354 cumulative IPC: 0.36530 (Simulation time: 0 hr 4 min 7 sec) 
Heartbeat CPU  0 instructions:  143000001 cycles:  224730144 heartbeat IPC: 0.37520 cumulative IPC: 0.36552 (Simulation time: 0 hr 4 min 9 sec) 
Heartbeat CPU  0 instructions:  144000000 cycles:  226655458 heartbeat IPC: 0.51940 cumulative IPC: 0.36800 (Simulation time: 0 hr 4 min 12 sec) 
Heartbeat CPU  0 instructions:  145000001 cycles:  228058643 heartbeat IPC: 0.71267 cumulative IPC: 0.37200 (Simulation time: 0 hr 4 min 15 sec) 
Heartbeat CPU  0 instructions:  146000001 cycles:  231800894 heartbeat IPC: 0.26722 cumulative IPC: 0.36885 (Simulation time: 0 hr 4 min 20 sec) 
Heartbeat CPU  0 instructions:  147000001 cycles:  235995014 heartbeat IPC: 0.23843 cumulative IPC: 0.36461 (Simulation time: 0 hr 4 min 25 sec) 
Heartbeat CPU  0 instructions:  148000000 cycles:  240576838 heartbeat IPC: 0.21825 cumulative IPC: 0.35959 (Simulation time: 0 hr 4 min 30 sec) 
Heartbeat CPU  0 instructions:  149000001 cycles:  248503657 heartbeat IPC: 0.12615 cumulative IPC: 0.34650 (Simulation time: 0 hr 4 min 38 sec) 
Heartbeat CPU  0 instructions:  150000001 cycles:  257537947 heartbeat IPC: 0.11069 cumulative IPC: 0.33234 (Simulation time: 0 hr 4 min 46 sec) 
Heartbeat CPU  0 instructions:  151000001 cycles:  267037375 heartbeat IPC: 0.10527 cumulative IPC: 0.31886 (Simulation time: 0 hr 4 min 55 sec) 
Heartbeat CPU  0 instructions:  152000000 cycles:  278181691 heartbeat IPC: 0.08973 cumulative IPC: 0.30393 (Simulation time: 0 hr 5 min 5 sec) 
Heartbeat CPU  0 instructions:  153000001 cycles:  292082640 heartbeat IPC: 0.07194 cumulative IPC: 0.28650 (Simulation time: 0 hr 5 min 17 sec) 
Heartbeat CPU  0 instructions:  154000003 cycles:  306354592 heartbeat IPC: 0.07007 cumulative IPC: 0.27100 (Simulation time: 0 hr 5 min 29 sec) 
Heartbeat CPU  0 instructions:  155000002 cycles:  312460137 heartbeat IPC: 0.16379 cumulative IPC: 0.26781 (Simulation time: 0 hr 5 min 35 sec) 
Heartbeat CPU  0 instructions:  156000000 cycles:  317207622 heartbeat IPC: 0.21064 cumulative IPC: 0.26652 (Simulation time: 0 hr 5 min 41 sec) 
Heartbeat CPU  0 instructions:  157000002 cycles:  321975614 heartbeat IPC: 0.20973 cumulative IPC: 0.26526 (Simulation time: 0 hr 5 min 46 sec) 
Heartbeat CPU  0 instructions:  158000002 cycles:  327022038 heartbeat IPC: 0.19816 cumulative IPC: 0.26372 (Simulation time: 0 hr 5 min 52 sec) 
Heartbeat CPU  0 instructions:  159000002 cycles:  336556395 heartbeat IPC: 0.10488 cumulative IPC: 0.25712 (Simulation time: 0 hr 6 min 1 sec) 
Heartbeat CPU  0 instructions:  160000000 cycles:  346025975 heartbeat IPC: 0.10560 cumulative IPC: 0.25111 (Simulation time: 0 hr 6 min 9 sec) 
Heartbeat CPU  0 instructions:  161000002 cycles:  355443514 heartbeat IPC: 0.10619 cumulative IPC: 0.24562 (Simulation time: 0 hr 6 min 18 sec) 
Heartbeat CPU  0 instructions:  162000000 cycles:  368389361 heartbeat IPC: 0.07724 cumulative IPC: 0.23728 (Simulation time: 0 hr 6 min 29 sec) 
Heartbeat CPU  0 instructions:  163000002 cycles:  382603850 heartbeat IPC: 0.07035 cumulative IPC: 0.22866 (Simulation time: 0 hr 6 min 41 sec) 
Heartbeat CPU  0 instructions:  164000000 cycles:  393817326 heartbeat IPC: 0.08918 cumulative IPC: 0.22321 (Simulation time: 0 hr 6 min 51 sec) 
Heartbeat CPU  0 instructions:  165000003 cycles:  397178311 heartbeat IPC: 0.29753 cumulative IPC: 0.22407 (Simulation time: 0 hr 6 min 54 sec) 
Heartbeat CPU  0 instructions:  166000000 cycles:  400019649 heartbeat IPC: 0.35195 cumulative IPC: 0.22531 (Simulation time: 0 hr 6 min 56 sec) 
Heartbeat CPU  0 instructions:  167000002 cycles:  402805268 heartbeat IPC: 0.35899 cumulative IPC: 0.22657 (Simulation time: 0 hr 6 min 59 sec) 
Heartbeat CPU  0 instructions:  168000000 cycles:  405585507 heartbeat IPC: 0.35968 cumulative IPC: 0.22781 (Simulation time: 0 hr 7 min 1 sec) 
Heartbeat CPU  0 instructions:  169000000 cycles:  408394748 heartbeat IPC: 0.35597 cumulative IPC: 0.22900 (Simulation time: 0 hr 7 min 4 sec) 
Heartbeat CPU  0 instructions:  170000003 cycles:  411179614 heartbeat IPC: 0.35908 cumulative IPC: 0.23020 (Simulation time: 0 hr 7 min 6 sec) 
Heartbeat CPU  0 instructions:  171000000 cycles:  413888964 heartbeat IPC: 0.36909 cumulative IPC: 0.23142 (Simulation time: 0 hr 7 min 8 sec) 
Heartbeat CPU  0 instructions:  172000000 cycles:  416668049 heartbeat IPC: 0.35983 cumulative IPC: 0.23257 (Simulation time: 0 hr 7 min 11 sec) 
Heartbeat CPU  0 instructions:  173000000 cycles:  419365318 heartbeat IPC: 0.37075 cumulative IPC: 0.23377 (Simulation time: 0 hr 7 min 13 sec) 
Heartbeat CPU  0 instructions:  174000000 cycles:  422154085 heartbeat IPC: 0.35858 cumulative IPC: 0.23487 (Simulation time: 0 hr 7 min 16 sec) 
Heartbeat CPU  0 instructions:  175000001 cycles:  424927226 heartbeat IPC: 0.36060 cumulative IPC: 0.23597 (Simulation time: 0 hr 7 min 18 sec) 
Heartbeat CPU  0 instructions:  176000000 cycles:  427711812 heartbeat IPC: 0.35912 cumulative IPC: 0.23704 (Simulation time: 0 hr 7 min 20 sec) 
Heartbeat CPU  0 instructions:  177000000 cycles:  430496457 heartbeat IPC: 0.35911 cumulative IPC: 0.23809 (Simulation time: 0 hr 7 min 23 sec) 
Heartbeat CPU  0 instructions:  178000001 cycles:  433220753 heartbeat IPC: 0.36707 cumulative IPC: 0.23917 (Simulation time: 0 hr 7 min 25 sec) 
Heartbeat CPU  0 instructions:  179000003 cycles:  435834105 heartbeat IPC: 0.38265 cumulative IPC: 0.24031 (Simulation time: 0 hr 7 min 27 sec) 
Heartbeat CPU  0 instructions:  180000000 cycles:  438580840 heartbeat IPC: 0.36407 cumulative IPC: 0.24133 (Simulation time: 0 hr 7 min 30 sec) 
Heartbeat CPU  0 instructions:  181000000 cycles:  441068699 heartbeat IPC: 0.40195 cumulative IPC: 0.24253 (Simulation time: 0 hr 7 min 32 sec) 
Heartbeat CPU  0 instructions:  182000000 cycles:  443755601 heartbeat IPC: 0.37218 cumulative IPC: 0.24357 (Simulation time: 0 hr 7 min 34 sec) 
Heartbeat CPU  0 instructions:  183000000 cycles:  446342832 heartbeat IPC: 0.38651 cumulative IPC: 0.24466 (Simulation time: 0 hr 7 min 36 sec) 
Heartbeat CPU  0 instructions:  184000000 cycles:  448822208 heartbeat IPC: 0.40333 cumulative IPC: 0.24581 (Simulation time: 0 hr 7 min 39 sec) 
Heartbeat CPU  0 instructions:  185000000 cycles:  451442759 heartbeat IPC: 0.38160 cumulative IPC: 0.24684 (Simulation time: 0 hr 7 min 41 sec) 
Heartbeat CPU  0 instructions:  186000000 cycles:  454148395 heartbeat IPC: 0.36960 cumulative IPC: 0.24780 (Simulation time: 0 hr 7 min 44 sec) 
Heartbeat CPU  0 instructions:  187000000 cycles:  456729009 heartbeat IPC: 0.38750 cumulative IPC: 0.24883 (Simulation time: 0 hr 7 min 46 sec) 
Heartbeat CPU  0 instructions:  188000000 cycles:  459125940 heartbeat IPC: 0.41720 cumulative IPC: 0.24997 (Simulation time: 0 hr 7 min 48 sec) 
Heartbeat CPU  0 instructions:  189000000 cycles:  461763906 heartbeat IPC: 0.37908 cumulative IPC: 0.25093 (Simulation time: 0 hr 7 min 50 sec) 
Heartbeat CPU  0 instructions:  190000000 cycles:  464324123 heartbeat IPC: 0.39059 cumulative IPC: 0.25194 (Simulation time: 0 hr 7 min 53 sec) 
Heartbeat CPU  0 instructions:  191000001 cycles:  466944924 heartbeat IPC: 0.38156 cumulative IPC: 0.25288 (Simulation time: 0 hr 7 min 55 sec) 
Heartbeat CPU  0 instructions:  192000000 cycles:  469538168 heartbeat IPC: 0.38562 cumulative IPC: 0.25383 (Simulation time: 0 hr 7 min 58 sec) 
Heartbeat CPU  0 instructions:  193000001 cycles:  472083350 heartbeat IPC: 0.39290 cumulative IPC: 0.25480 (Simulation time: 0 hr 8 min 0 sec) 
Heartbeat CPU  0 instructions:  194000000 cycles:  474128258 heartbeat IPC: 0.48902 cumulative IPC: 0.25610 (Simulation time: 0 hr 8 min 2 sec) 
Heartbeat CPU  0 instructions:  195000000 cycles:  476760052 heartbeat IPC: 0.37997 cumulative IPC: 0.25699 (Simulation time: 0 hr 8 min 4 sec) 
Heartbeat CPU  0 instructions:  196000000 cycles:  479380770 heartbeat IPC: 0.38157 cumulative IPC: 0.25786 (Simulation time: 0 hr 8 min 7 sec) 
Heartbeat CPU  0 instructions:  197000002 cycles:  481941468 heartbeat IPC: 0.39052 cumulative IPC: 0.25877 (Simulation time: 0 hr 8 min 9 sec) 
Heartbeat CPU  0 instructions:  198000000 cycles:  484463750 heartbeat IPC: 0.39647 cumulative IPC: 0.25969 (Simulation time: 0 hr 8 min 11 sec) 
Heartbeat CPU  0 instructions:  199000000 cycles:  486982101 heartbeat IPC: 0.39709 cumulative IPC: 0.26060 (Simulation time: 0 hr 8 min 14 sec) 
Heartbeat CPU  0 instructions:  200000000 cycles:  489555760 heartbeat IPC: 0.38855 cumulative IPC: 0.26146 (Simulation time: 0 hr 8 min 16 sec) 
Heartbeat CPU  0 instructions:  201000002 cycles:  492229725 heartbeat IPC: 0.37398 cumulative IPC: 0.26224 (Simulation time: 0 hr 8 min 18 sec) 
Heartbeat CPU  0 instructions:  202000001 cycles:  494934749 heartbeat IPC: 0.36968 cumulative IPC: 0.26299 (Simulation time: 0 hr 8 min 21 sec) 
Heartbeat CPU  0 instructions:  203000000 cycles:  497519312 heartbeat IPC: 0.38691 cumulative IPC: 0.26381 (Simulation time: 0 hr 8 min 23 sec) 
Heartbeat CPU  0 instructions:  204000000 cycles:  500049375 heartbeat IPC: 0.39525 cumulative IPC: 0.26466 (Simulation time: 0 hr 8 min 25 sec) 
Heartbeat CPU  0 instructions:  205000002 cycles:  502674105 heartbeat IPC: 0.38099 cumulative IPC: 0.26543 (Simulation time: 0 hr 8 min 28 sec) 
Heartbeat CPU  0 instructions:  206000001 cycles:  505205707 heartbeat IPC: 0.39501 cumulative IPC: 0.26625 (Simulation time: 0 hr 8 min 30 sec) 
Heartbeat CPU  0 instructions:  207000000 cycles:  507785870 heartbeat IPC: 0.38757 cumulative IPC: 0.26704 (Simulation time: 0 hr 8 min 32 sec) 
Heartbeat CPU  0 instructions:  208000000 cycles:  510599518 heartbeat IPC: 0.35541 cumulative IPC: 0.26765 (Simulation time: 0 hr 8 min 34 sec) 
Heartbeat CPU  0 instructions:  209000003 cycles:  513424355 heartbeat IPC: 0.35400 cumulative IPC: 0.26825 (Simulation time: 0 hr 8 min 37 sec) 
Heartbeat CPU  0 instructions:  210000000 cycles:  516030543 heartbeat IPC: 0.38370 cumulative IPC: 0.26899 (Simulation time: 0 hr 8 min 39 sec) 
Heartbeat CPU  0 instructions:  211000000 cycles:  518896206 heartbeat IPC: 0.34896 cumulative IPC: 0.26954 (Simulation time: 0 hr 8 min 42 sec) 
Heartbeat CPU  0 instructions:  212000000 cycles:  521594710 heartbeat IPC: 0.37058 cumulative IPC: 0.27020 (Simulation time: 0 hr 8 min 44 sec) 
Heartbeat CPU  0 instructions:  213000002 cycles:  524337525 heartbeat IPC: 0.36459 cumulative IPC: 0.27082 (Simulation time: 0 hr 8 min 47 sec) 
Heartbeat CPU  0 instructions:  214000000 cycles:  527143781 heartbeat IPC: 0.35635 cumulative IPC: 0.27139 (Simulation time: 0 hr 8 min 49 sec) 
Heartbeat CPU  0 instructions:  215000001 cycles:  529933544 heartbeat IPC: 0.35845 cumulative IPC: 0.27197 (Simulation time: 0 hr 8 min 51 sec) 
Heartbeat CPU  0 instructions:  216000000 cycles:  532701540 heartbeat IPC: 0.36127 cumulative IPC: 0.27255 (Simulation time: 0 hr 8 min 54 sec) 
Heartbeat CPU  0 instructions:  217000000 cycles:  535479358 heartbeat IPC: 0.35999 cumulative IPC: 0.27312 (Simulation time: 0 hr 8 min 56 sec) 
Heartbeat CPU  0 instructions:  218000002 cycles:  538265386 heartbeat IPC: 0.35893 cumulative IPC: 0.27367 (Simulation time: 0 hr 8 min 58 sec) 
Heartbeat CPU  0 instructions:  219000000 cycles:  541023940 heartbeat IPC: 0.36251 cumulative IPC: 0.27424 (Simulation time: 0 hr 9 min 1 sec) 
Heartbeat CPU  0 instructions:  220000000 cycles:  543767446 heartbeat IPC: 0.36450 cumulative IPC: 0.27480 (Simulation time: 0 hr 9 min 3 sec) 
Heartbeat CPU  0 instructions:  221000003 cycles:  546573046 heartbeat IPC: 0.35643 cumulative IPC: 0.27532 (Simulation time: 0 hr 9 min 6 sec) 
Heartbeat CPU  0 instructions:  222000003 cycles:  549352716 heartbeat IPC: 0.35975 cumulative IPC: 0.27585 (Simulation time: 0 hr 9 min 8 sec) 
Heartbeat CPU  0 instructions:  223000000 cycles:  552071259 heartbeat IPC: 0.36784 cumulative IPC: 0.27642 (Simulation time: 0 hr 9 min 10 sec) 
Heartbeat CPU  0 instructions:  224000000 cycles:  554779442 heartbeat IPC: 0.36925 cumulative IPC: 0.27698 (Simulation time: 0 hr 9 min 13 sec) 
Heartbeat CPU  0 instructions:  225000000 cycles:  557412747 heartbeat IPC: 0.37975 cumulative IPC: 0.27758 (Simulation time: 0 hr 9 min 15 sec) 
Heartbeat CPU  0 instructions:  226000002 cycles:  560147541 heartbeat IPC: 0.36566 cumulative IPC: 0.27811 (Simulation time: 0 hr 9 min 17 sec) 
Heartbeat CPU  0 instructions:  227000000 cycles:  562883635 heartbeat IPC: 0.36548 cumulative IPC: 0.27863 (Simulation time: 0 hr 9 min 20 sec) 
Heartbeat CPU  0 instructions:  228000000 cycles:  565576177 heartbeat IPC: 0.37140 cumulative IPC: 0.27918 (Simulation time: 0 hr 9 min 22 sec) 
Heartbeat CPU  0 instructions:  229000003 cycles:  568379911 heartbeat IPC: 0.35667 cumulative IPC: 0.27965 (Simulation time: 0 hr 9 min 24 sec) 
Heartbeat CPU  0 instructions:  230000003 cycles:  571167280 heartbeat IPC: 0.35876 cumulative IPC: 0.28013 (Simulation time: 0 hr 9 min 27 sec) 
Heartbeat CPU  0 instructions:  231000000 cycles:  573949384 heartbeat IPC: 0.35944 cumulative IPC: 0.28060 (Simulation time: 0 hr 9 min 29 sec) 
Heartbeat CPU  0 instructions:  232000000 cycles:  576664144 heartbeat IPC: 0.36836 cumulative IPC: 0.28111 (Simulation time: 0 hr 9 min 32 sec) 
Heartbeat CPU  0 instructions:  233000001 cycles:  579398068 heartbeat IPC: 0.36577 cumulative IPC: 0.28160 (Simulation time: 0 hr 9 min 34 sec) 
Heartbeat CPU  0 instructions:  234000000 cycles:  582132734 heartbeat IPC: 0.36568 cumulative IPC: 0.28208 (Simulation time: 0 hr 9 min 36 sec) 
Heartbeat CPU  0 instructions:  235000000 cycles:  584847123 heartbeat IPC: 0.36841 cumulative IPC: 0.28257 (Simulation time: 0 hr 9 min 39 sec) 
Heartbeat CPU  0 instructions:  236000000 cycles:  587319238 heartbeat IPC: 0.40451 cumulative IPC: 0.28320 (Simulation time: 0 hr 9 min 41 sec) 
Heartbeat CPU  0 instructions:  237000001 cycles:  589662293 heartbeat IPC: 0.42679 cumulative IPC: 0.28390 (Simulation time: 0 hr 9 min 43 sec) 
Heartbeat CPU  0 instructions:  238000000 cycles:  592211036 heartbeat IPC: 0.39235 cumulative IPC: 0.28447 (Simulation time: 0 hr 9 min 45 sec) 
Heartbeat CPU  0 instructions:  239000000 cycles:  594973008 heartbeat IPC: 0.36206 cumulative IPC: 0.28490 (Simulation time: 0 hr 9 min 48 sec) 
Heartbeat CPU  0 instructions:  240000000 cycles:  597645914 heartbeat IPC: 0.37412 cumulative IPC: 0.28539 (Simulation time: 0 hr 9 min 50 sec) 
Heartbeat CPU  0 instructions:  241000000 cycles:  600346137 heartbeat IPC: 0.37034 cumulative IPC: 0.28586 (Simulation time: 0 hr 9 min 53 sec) 
Heartbeat CPU  0 instructions:  242000003 cycles:  603175902 heartbeat IPC: 0.35339 cumulative IPC: 0.28624 (Simulation time: 0 hr 9 min 55 sec) 
Heartbeat CPU  0 instructions:  243000001 cycles:  605943493 heartbeat IPC: 0.36132 cumulative IPC: 0.28666 (Simulation time: 0 hr 9 min 57 sec) 
Heartbeat CPU  0 instructions:  244000000 cycles:  608553196 heartbeat IPC: 0.38318 cumulative IPC: 0.28716 (Simulation time: 0 hr 10 min 0 sec) 
Heartbeat CPU  0 instructions:  245000000 cycles:  611104815 heartbeat IPC: 0.39191 cumulative IPC: 0.28769 (Simulation time: 0 hr 10 min 2 sec) 
Heartbeat CPU  0 instructions:  246000001 cycles:  613846538 heartbeat IPC: 0.36473 cumulative IPC: 0.28811 (Simulation time: 0 hr 10 min 4 sec) 
Heartbeat CPU  0 instructions:  247000002 cycles:  616499145 heartbeat IPC: 0.37699 cumulative IPC: 0.28857 (Simulation time: 0 hr 10 min 7 sec) 
Heartbeat CPU  0 instructions:  248000000 cycles:  619085162 heartbeat IPC: 0.38669 cumulative IPC: 0.28907 (Simulation time: 0 hr 10 min 9 sec) 
Heartbeat CPU  0 instructions:  249000003 cycles:  621635941 heartbeat IPC: 0.39204 cumulative IPC: 0.28958 (Simulation time: 0 hr 10 min 11 sec) 
Heartbeat CPU  0 instructions:  250000000 cycles:  624037165 heartbeat IPC: 0.41645 cumulative IPC: 0.29017 (Simulation time: 0 hr 10 min 14 sec) 
Heartbeat CPU  0 instructions:  251000002 cycles:  626753902 heartbeat IPC: 0.36809 cumulative IPC: 0.29057 (Simulation time: 0 hr 10 min 16 sec) 
Heartbeat CPU  0 instructions:  252000000 cycles:  629461788 heartbeat IPC: 0.36929 cumulative IPC: 0.29098 (Simulation time: 0 hr 10 min 18 sec) 
Heartbeat CPU  0 instructions:  253000000 cycles:  632270617 heartbeat IPC: 0.35602 cumulative IPC: 0.29133 (Simulation time: 0 hr 10 min 21 sec) 
Heartbeat CPU  0 instructions:  254000002 cycles:  634991578 heartbeat IPC: 0.36752 cumulative IPC: 0.29172 (Simulation time: 0 hr 10 min 23 sec) 
Heartbeat CPU  0 instructions:  255000001 cycles:  637722696 heartbeat IPC: 0.36615 cumulative IPC: 0.29210 (Simulation time: 0 hr 10 min 25 sec) 
Heartbeat CPU  0 instructions:  256000000 cycles:  640456597 heartbeat IPC: 0.36578 cumulative IPC: 0.29248 (Simulation time: 0 hr 10 min 28 sec) 
Heartbeat CPU  0 instructions:  257000000 cycles:  643174700 heartbeat IPC: 0.36790 cumulative IPC: 0.29286 (Simulation time: 0 hr 10 min 30 sec) 
Heartbeat CPU  0 instructions:  258000000 cycles:  645885822 heartbeat IPC: 0.36885 cumulative IPC: 0.29325 (Simulation time: 0 hr 10 min 33 sec) 
Heartbeat CPU  0 instructions:  259000000 cycles:  648376640 heartbeat IPC: 0.40147 cumulative IPC: 0.29374 (Simulation time: 0 hr 10 min 35 sec) 
Heartbeat CPU  0 instructions:  260000000 cycles:  651052281 heartbeat IPC: 0.37374 cumulative IPC: 0.29414 (Simulation time: 0 hr 10 min 37 sec) 
Heartbeat CPU  0 instructions:  261000000 cycles:  653761154 heartbeat IPC: 0.36916 cumulative IPC: 0.29451 (Simulation time: 0 hr 10 min 40 sec) 
Heartbeat CPU  0 instructions:  262000000 cycles:  656489248 heartbeat IPC: 0.36656 cumulative IPC: 0.29487 (Simulation time: 0 hr 10 min 42 sec) 
Heartbeat CPU  0 instructions:  263000001 cycles:  659183174 heartbeat IPC: 0.37121 cumulative IPC: 0.29524 (Simulation time: 0 hr 10 min 44 sec) 
Heartbeat CPU  0 instructions:  264000000 cycles:  661818002 heartbeat IPC: 0.37953 cumulative IPC: 0.29564 (Simulation time: 0 hr 10 min 47 sec) 
Heartbeat CPU  0 instructions:  265000002 cycles:  664449411 heartbeat IPC: 0.38003 cumulative IPC: 0.29604 (Simulation time: 0 hr 10 min 49 sec) 
Heartbeat CPU  0 instructions:  266000002 cycles:  667098056 heartbeat IPC: 0.37755 cumulative IPC: 0.29642 (Simulation time: 0 hr 10 min 51 sec) 
Heartbeat CPU  0 instructions:  267000003 cycles:  669824895 heartbeat IPC: 0.36673 cumulative IPC: 0.29677 (Simulation time: 0 hr 10 min 54 sec) 
Heartbeat CPU  0 instructions:  268000000 cycles:  672567828 heartbeat IPC: 0.36457 cumulative IPC: 0.29709 (Simulation time: 0 hr 10 min 56 sec) 
Heartbeat CPU  0 instructions:  269000001 cycles:  675299515 heartbeat IPC: 0.36607 cumulative IPC: 0.29743 (Simulation time: 0 hr 10 min 58 sec) 
Heartbeat CPU  0 instructions:  270000001 cycles:  678004407 heartbeat IPC: 0.36970 cumulative IPC: 0.29777 (Simulation time: 0 hr 11 min 1 sec) 
Heartbeat CPU  0 instructions:  271000003 cycles:  680700085 heartbeat IPC: 0.37096 cumulative IPC: 0.29811 (Simulation time: 0 hr 11 min 3 sec) 
Heartbeat CPU  0 instructions:  272000000 cycles:  683427717 heartbeat IPC: 0.36662 cumulative IPC: 0.29844 (Simulation time: 0 hr 11 min 5 sec) 
Heartbeat CPU  0 instructions:  273000001 cycles:  686117635 heartbeat IPC: 0.37176 cumulative IPC: 0.29878 (Simulation time: 0 hr 11 min 8 sec) 
Heartbeat CPU  0 instructions:  274000003 cycles:  688901033 heartbeat IPC: 0.35927 cumulative IPC: 0.29907 (Simulation time: 0 hr 11 min 10 sec) 
Heartbeat CPU  0 instructions:  275000002 cycles:  691632768 heartbeat IPC: 0.36607 cumulative IPC: 0.29938 (Simulation time: 0 hr 11 min 12 sec) 
Heartbeat CPU  0 instructions:  276000000 cycles:  694295252 heartbeat IPC: 0.37559 cumulative IPC: 0.29972 (Simulation time: 0 hr 11 min 15 sec) 
Heartbeat CPU  0 instructions:  277000000 cycles:  696866319 heartbeat IPC: 0.38894 cumulative IPC: 0.30011 (Simulation time: 0 hr 11 min 17 sec) 
Heartbeat CPU  0 instructions:  278000001 cycles:  699353801 heartbeat IPC: 0.40201 cumulative IPC: 0.30054 (Simulation time: 0 hr 11 min 19 sec) 
Heartbeat CPU  0 instructions:  279000002 cycles:  701932450 heartbeat IPC: 0.38780 cumulative IPC: 0.30092 (Simulation time: 0 hr 11 min 22 sec) 
Heartbeat CPU  0 instructions:  280000000 cycles:  704635038 heartbeat IPC: 0.37001 cumulative IPC: 0.30123 (Simulation time: 0 hr 11 min 24 sec) 
Heartbeat CPU  0 instructions:  281000002 cycles:  707360443 heartbeat IPC: 0.36692 cumulative IPC: 0.30153 (Simulation time: 0 hr 11 min 26 sec) 
Heartbeat CPU  0 instructions:  282000003 cycles:  710002403 heartbeat IPC: 0.37851 cumulative IPC: 0.30187 (Simulation time: 0 hr 11 min 29 sec) 
Heartbeat CPU  0 instructions:  283000001 cycles:  712461060 heartbeat IPC: 0.40673 cumulative IPC: 0.30229 (Simulation time: 0 hr 11 min 31 sec) 
Heartbeat CPU  0 instructions:  284000000 cycles:  715074408 heartbeat IPC: 0.38265 cumulative IPC: 0.30264 (Simulation time: 0 hr 11 min 33 sec) 
Heartbeat CPU  0 instructions:  285000001 cycles:  717742834 heartbeat IPC: 0.37475 cumulative IPC: 0.30295 (Simulation time: 0 hr 11 min 36 sec) 
Heartbeat CPU  0 instructions:  286000000 cycles:  720228821 heartbeat IPC: 0.40225 cumulative IPC: 0.30336 (Simulation time: 0 hr 11 min 38 sec) 
Heartbeat CPU  0 instructions:  287000002 cycles:  722794813 heartbeat IPC: 0.38971 cumulative IPC: 0.30372 (Simulation time: 0 hr 11 min 40 sec) 
Heartbeat CPU  0 instructions:  288000000 cycles:  725506854 heartbeat IPC: 0.36873 cumulative IPC: 0.30400 (Simulation time: 0 hr 11 min 43 sec) 
Heartbeat CPU  0 instructions:  289000000 cycles:  728262310 heartbeat IPC: 0.36292 cumulative IPC: 0.30426 (Simulation time: 0 hr 11 min 45 sec) 
Heartbeat CPU  0 instructions:  290000002 cycles:  730936452 heartbeat IPC: 0.37395 cumulative IPC: 0.30456 (Simulation time: 0 hr 11 min 47 sec) 
Heartbeat CPU  0 instructions:  291000000 cycles:  733811179 heartbeat IPC: 0.34786 cumulative IPC: 0.30476 (Simulation time: 0 hr 11 min 50 sec) 
Heartbeat CPU  0 instructions:  292000000 cycles:  736630818 heartbeat IPC: 0.35466 cumulative IPC: 0.30498 (Simulation time: 0 hr 11 min 52 sec) 
Heartbeat CPU  0 instructions:  293000000 cycles:  739410812 heartbeat IPC: 0.35971 cumulative IPC: 0.30522 (Simulation time: 0 hr 11 min 54 sec) 
Heartbeat CPU  0 instructions:  294000002 cycles:  742162677 heartbeat IPC: 0.36339 cumulative IPC: 0.30548 (Simulation time: 0 hr 11 min 57 sec) 
Heartbeat CPU  0 instructions:  295000001 cycles:  744865590 heartbeat IPC: 0.36997 cumulative IPC: 0.30575 (Simulation time: 0 hr 11 min 59 sec) 
Heartbeat CPU  0 instructions:  296000000 cycles:  747621957 heartbeat IPC: 0.36280 cumulative IPC: 0.30600 (Simulation time: 0 hr 12 min 2 sec) 
Heartbeat CPU  0 instructions:  297000000 cycles:  750334354 heartbeat IPC: 0.36868 cumulative IPC: 0.30626 (Simulation time: 0 hr 12 min 4 sec) 
Heartbeat CPU  0 instructions:  298000000 cycles:  753004177 heartbeat IPC: 0.37456 cumulative IPC: 0.30654 (Simulation time: 0 hr 12 min 6 sec) 
Heartbeat CPU  0 instructions:  299000000 cycles:  755785421 heartbeat IPC: 0.35955 cumulative IPC: 0.30677 (Simulation time: 0 hr 12 min 9 sec) 
Heartbeat CPU  0 instructions:  300000000 cycles:  758458950 heartbeat IPC: 0.37404 cumulative IPC: 0.30705 (Simulation time: 0 hr 12 min 11 sec) 
Heartbeat CPU  0 instructions:  301000000 cycles:  761226517 heartbeat IPC: 0.36133 cumulative IPC: 0.30728 (Simulation time: 0 hr 12 min 13 sec) 
Heartbeat CPU  0 instructions:  302000000 cycles:  763969768 heartbeat IPC: 0.36453 cumulative IPC: 0.30751 (Simulation time: 0 hr 12 min 16 sec) 
Heartbeat CPU  0 instructions:  303000000 cycles:  766845994 heartbeat IPC: 0.34768 cumulative IPC: 0.30769 (Simulation time: 0 hr 12 min 18 sec) 
Heartbeat CPU  0 instructions:  304000000 cycles:  769562841 heartbeat IPC: 0.36807 cumulative IPC: 0.30794 (Simulation time: 0 hr 12 min 20 sec) 
Heartbeat CPU  0 instructions:  305000002 cycles:  772192002 heartbeat IPC: 0.38035 cumulative IPC: 0.30822 (Simulation time: 0 hr 12 min 23 sec) 
Heartbeat CPU  0 instructions:  306000000 cycles:  775080169 heartbeat IPC: 0.34624 cumulative IPC: 0.30839 (Simulation time: 0 hr 12 min 25 sec) 
Heartbeat CPU  0 instructions:  307000000 cycles:  777802578 heartbeat IPC: 0.36732 cumulative IPC: 0.30863 (Simulation time: 0 hr 12 min 28 sec) 
Heartbeat CPU  0 instructions:  308000000 cycles:  780516511 heartbeat IPC: 0.36847 cumulative IPC: 0.30887 (Simulation time: 0 hr 12 min 30 sec) 
Heartbeat CPU  0 instructions:  309000000 cycles:  783191748 heartbeat IPC: 0.37380 cumulative IPC: 0.30913 (Simulation time: 0 hr 12 min 32 sec) 
Heartbeat CPU  0 instructions:  310000000 cycles:  785617937 heartbeat IPC: 0.41217 cumulative IPC: 0.30949 (Simulation time: 0 hr 12 min 34 sec) 
Heartbeat CPU  0 instructions:  311000000 cycles:  787521470 heartbeat IPC: 0.52534 cumulative IPC: 0.31010 (Simulation time: 0 hr 12 min 36 sec) 
Heartbeat CPU  0 instructions:  312000000 cycles:  790167728 heartbeat IPC: 0.37789 cumulative IPC: 0.31036 (Simulation time: 0 hr 12 min 39 sec) 
Heartbeat CPU  0 instructions:  313000002 cycles:  792914383 heartbeat IPC: 0.36408 cumulative IPC: 0.31058 (Simulation time: 0 hr 12 min 41 sec) 
Heartbeat CPU  0 instructions:  314000002 cycles:  795648573 heartbeat IPC: 0.36574 cumulative IPC: 0.31079 (Simulation time: 0 hr 12 min 43 sec) 
Heartbeat CPU  0 instructions:  315000001 cycles:  798410986 heartbeat IPC: 0.36200 cumulative IPC: 0.31100 (Simulation time: 0 hr 12 min 46 sec) 
Heartbeat CPU  0 instructions:  316000000 cycles:  801221667 heartbeat IPC: 0.35579 cumulative IPC: 0.31118 (Simulation time: 0 hr 12 min 48 sec) 
Heartbeat CPU  0 instructions:  317000003 cycles:  803975214 heartbeat IPC: 0.36317 cumulative IPC: 0.31139 (Simulation time: 0 hr 12 min 50 sec) 
Heartbeat CPU  0 instructions:  318000000 cycles:  806688668 heartbeat IPC: 0.36853 cumulative IPC: 0.31161 (Simulation time: 0 hr 12 min 53 sec) 
Heartbeat CPU  0 instructions:  319000000 cycles:  809328318 heartbeat IPC: 0.37884 cumulative IPC: 0.31186 (Simulation time: 0 hr 12 min 55 sec) 
Heartbeat CPU  0 instructions:  320000000 cycles:  812005738 heartbeat IPC: 0.37349 cumulative IPC: 0.31209 (Simulation time: 0 hr 12 min 57 sec) 
Heartbeat CPU  0 instructions:  321000003 cycles:  814731113 heartbeat IPC: 0.36692 cumulative IPC: 0.31231 (Simulation time: 0 hr 13 min 0 sec) 
Heartbeat CPU  0 instructions:  322000002 cycles:  817343240 heartbeat IPC: 0.38283 cumulative IPC: 0.31256 (Simulation time: 0 hr 13 min 2 sec) 
Heartbeat CPU  0 instructions:  323000000 cycles:  819966360 heartbeat IPC: 0.38122 cumulative IPC: 0.31282 (Simulation time: 0 hr 13 min 4 sec) 
Heartbeat CPU  0 instructions:  324000000 cycles:  822102672 heartbeat IPC: 0.46810 cumulative IPC: 0.31328 (Simulation time: 0 hr 13 min 6 sec) 
Heartbeat CPU  0 instructions:  325000001 cycles:  824512023 heartbeat IPC: 0.41505 cumulative IPC: 0.31362 (Simulation time: 0 hr 13 min 9 sec) 
Heartbeat CPU  0 instructions:  326000000 cycles:  826977662 heartbeat IPC: 0.40557 cumulative IPC: 0.31394 (Simulation time: 0 hr 13 min 11 sec) 
Heartbeat CPU  0 instructions:  327000000 cycles:  829403555 heartbeat IPC: 0.41222 cumulative IPC: 0.31427 (Simulation time: 0 hr 13 min 13 sec) 
Heartbeat CPU  0 instructions:  328000000 cycles:  832076891 heartbeat IPC: 0.37406 cumulative IPC: 0.31449 (Simulation time: 0 hr 13 min 16 sec) 
Heartbeat CPU  0 instructions:  329000003 cycles:  834574100 heartbeat IPC: 0.40045 cumulative IPC: 0.31478 (Simulation time: 0 hr 13 min 18 sec) 
Heartbeat CPU  0 instructions:  330000001 cycles:  836920451 heartbeat IPC: 0.42619 cumulative IPC: 0.31514 (Simulation time: 0 hr 13 min 20 sec) 
Heartbeat CPU  0 instructions:  331000001 cycles:  839290577 heartbeat IPC: 0.42192 cumulative IPC: 0.31549 (Simulation time: 0 hr 13 min 23 sec) 
Heartbeat CPU  0 instructions:  332000000 cycles:  841880864 heartbeat IPC: 0.38606 cumulative IPC: 0.31574 (Simulation time: 0 hr 13 min 25 sec) 
Heartbeat CPU  0 instructions:  333000000 cycles:  844461930 heartbeat IPC: 0.38744 cumulative IPC: 0.31599 (Simulation time: 0 hr 13 min 27 sec) 
Heartbeat CPU  0 instructions:  334000001 cycles:  847007813 heartbeat IPC: 0.39279 cumulative IPC: 0.31625 (Simulation time: 0 hr 13 min 30 sec) 
Heartbeat CPU  0 instructions:  335000000 cycles:  849615204 heartbeat IPC: 0.38352 cumulative IPC: 0.31649 (Simulation time: 0 hr 13 min 32 sec) 
Heartbeat CPU  0 instructions:  336000000 cycles:  852015563 heartbeat IPC: 0.41660 cumulative IPC: 0.31681 (Simulation time: 0 hr 13 min 34 sec) 
Heartbeat CPU  0 instructions:  337000000 cycles:  854405921 heartbeat IPC: 0.41835 cumulative IPC: 0.31714 (Simulation time: 0 hr 13 min 36 sec) 
Heartbeat CPU  0 instructions:  338000001 cycles:  856883746 heartbeat IPC: 0.40358 cumulative IPC: 0.31742 (Simulation time: 0 hr 13 min 39 sec) 
Heartbeat CPU  0 instructions:  339000000 cycles:  859349908 heartbeat IPC: 0.40549 cumulative IPC: 0.31771 (Simulation time: 0 hr 13 min 41 sec) 
Heartbeat CPU  0 instructions:  340000000 cycles:  861973491 heartbeat IPC: 0.38116 cumulative IPC: 0.31793 (Simulation time: 0 hr 13 min 43 sec) 
Heartbeat CPU  0 instructions:  341000002 cycles:  864582358 heartbeat IPC: 0.38331 cumulative IPC: 0.31816 (Simulation time: 0 hr 13 min 46 sec) 
Heartbeat CPU  0 instructions:  342000001 cycles:  867345541 heartbeat IPC: 0.36190 cumulative IPC: 0.31831 (Simulation time: 0 hr 13 min 48 sec) 
Heartbeat CPU  0 instructions:  343000003 cycles:  869938757 heartbeat IPC: 0.38562 cumulative IPC: 0.31854 (Simulation time: 0 hr 13 min 50 sec) 
Heartbeat CPU  0 instructions:  344000000 cycles:  872467985 heartbeat IPC: 0.39538 cumulative IPC: 0.31880 (Simulation time: 0 hr 13 min 53 sec) 
Heartbeat CPU  0 instructions:  345000003 cycles:  875265729 heartbeat IPC: 0.35743 cumulative IPC: 0.31894 (Simulation time: 0 hr 13 min 55 sec) 
Heartbeat CPU  0 instructions:  346000001 cycles:  877989454 heartbeat IPC: 0.36714 cumulative IPC: 0.31911 (Simulation time: 0 hr 13 min 57 sec) 
Heartbeat CPU  0 instructions:  347000002 cycles:  880487769 heartbeat IPC: 0.40027 cumulative IPC: 0.31937 (Simulation time: 0 hr 14 min 0 sec) 
Heartbeat CPU  0 instructions:  348000000 cycles:  882855555 heartbeat IPC: 0.42233 cumulative IPC: 0.31968 (Simulation time: 0 hr 14 min 2 sec) 
Heartbeat CPU  0 instructions:  349000000 cycles:  885494129 heartbeat IPC: 0.37899 cumulative IPC: 0.31989 (Simulation time: 0 hr 14 min 4 sec) 
Heartbeat CPU  0 instructions:  350000001 cycles:  888015096 heartbeat IPC: 0.39667 cumulative IPC: 0.32013 (Simulation time: 0 hr 14 min 7 sec) 
Heartbeat CPU  0 instructions:  351000000 cycles:  890818335 heartbeat IPC: 0.35673 cumulative IPC: 0.32026 (Simulation time: 0 hr 14 min 9 sec) 
Heartbeat CPU  0 instructions:  352000000 cycles:  893498795 heartbeat IPC: 0.37307 cumulative IPC: 0.32044 (Simulation time: 0 hr 14 min 11 sec) 
Heartbeat CPU  0 instructions:  353000002 cycles:  896071205 heartbeat IPC: 0.38874 cumulative IPC: 0.32067 (Simulation time: 0 hr 14 min 14 sec) 
Heartbeat CPU  0 instructions:  354000000 cycles:  898770062 heartbeat IPC: 0.37053 cumulative IPC: 0.32084 (Simulation time: 0 hr 14 min 16 sec) 
Heartbeat CPU  0 instructions:  355000003 cycles:  901512014 heartbeat IPC: 0.36470 cumulative IPC: 0.32099 (Simulation time: 0 hr 14 min 18 sec) 
Heartbeat CPU  0 instructions:  356000000 cycles:  904247251 heartbeat IPC: 0.36560 cumulative IPC: 0.32114 (Simulation time: 0 hr 14 min 21 sec) 
Heartbeat CPU  0 instructions:  357000000 cycles:  906922245 heartbeat IPC: 0.37383 cumulative IPC: 0.32132 (Simulation time: 0 hr 14 min 23 sec) 
Heartbeat CPU  0 instructions:  358000000 cycles:  909626641 heartbeat IPC: 0.36977 cumulative IPC: 0.32148 (Simulation time: 0 hr 14 min 25 sec) 
Heartbeat CPU  0 instructions:  359000000 cycles:  912314243 heartbeat IPC: 0.37208 cumulative IPC: 0.32165 (Simulation time: 0 hr 14 min 28 sec) 
Heartbeat CPU  0 instructions:  360000000 cycles:  914993070 heartbeat IPC: 0.37330 cumulative IPC: 0.32182 (Simulation time: 0 hr 14 min 30 sec) 
Heartbeat CPU  0 instructions:  361000000 cycles:  917528338 heartbeat IPC: 0.39444 cumulative IPC: 0.32205 (Simulation time: 0 hr 14 min 33 sec) 
Heartbeat CPU  0 instructions:  362000000 cycles:  920425955 heartbeat IPC: 0.34511 cumulative IPC: 0.32213 (Simulation time: 0 hr 14 min 35 sec) 
Heartbeat CPU  0 instructions:  363000000 cycles:  923209357 heartbeat IPC: 0.35927 cumulative IPC: 0.32226 (Simulation time: 0 hr 14 min 37 sec) 
Heartbeat CPU  0 instructions:  364000000 cycles:  925621733 heartbeat IPC: 0.41453 cumulative IPC: 0.32253 (Simulation time: 0 hr 14 min 39 sec) 
Heartbeat CPU  0 instructions:  365000000 cycles:  928037593 heartbeat IPC: 0.41393 cumulative IPC: 0.32280 (Simulation time: 0 hr 14 min 42 sec) 
Heartbeat CPU  0 instructions:  366000002 cycles:  929893219 heartbeat IPC: 0.53890 cumulative IPC: 0.32329 (Simulation time: 0 hr 14 min 44 sec) 
Heartbeat CPU  0 instructions:  367000000 cycles:  931640655 heartbeat IPC: 0.57227 cumulative IPC: 0.32381 (Simulation time: 0 hr 14 min 46 sec) 
Heartbeat CPU  0 instructions:  368000000 cycles:  934523121 heartbeat IPC: 0.34693 cumulative IPC: 0.32389 (Simulation time: 0 hr 14 min 48 sec) 
Heartbeat CPU  0 instructions:  369000000 cycles:  937301360 heartbeat IPC: 0.35994 cumulative IPC: 0.32401 (Simulation time: 0 hr 14 min 50 sec) 
Heartbeat CPU  0 instructions:  370000000 cycles:  940242972 heartbeat IPC: 0.33995 cumulative IPC: 0.32407 (Simulation time: 0 hr 14 min 53 sec) 
Heartbeat CPU  0 instructions:  371000003 cycles:  942907825 heartbeat IPC: 0.37526 cumulative IPC: 0.32423 (Simulation time: 0 hr 14 min 55 sec) 
Heartbeat CPU  0 instructions:  372000000 cycles:  945568462 heartbeat IPC: 0.37585 cumulative IPC: 0.32440 (Simulation time: 0 hr 14 min 58 sec) 
Heartbeat CPU  0 instructions:  373000002 cycles:  948232600 heartbeat IPC: 0.37536 cumulative IPC: 0.32456 (Simulation time: 0 hr 15 min 0 sec) 
Heartbeat CPU  0 instructions:  374000001 cycles:  951026598 heartbeat IPC: 0.35791 cumulative IPC: 0.32467 (Simulation time: 0 hr 15 min 2 sec) 
Heartbeat CPU  0 instructions:  375000000 cycles:  953798830 heartbeat IPC: 0.36072 cumulative IPC: 0.32479 (Simulation time: 0 hr 15 min 5 sec) 
Heartbeat CPU  0 instructions:  376000000 cycles:  956574858 heartbeat IPC: 0.36023 cumulative IPC: 0.32490 (Simulation time: 0 hr 15 min 7 sec) 
Heartbeat CPU  0 instructions:  377000002 cycles:  959343565 heartbeat IPC: 0.36118 cumulative IPC: 0.32502 (Simulation time: 0 hr 15 min 9 sec) 
Heartbeat CPU  0 instructions:  378000001 cycles:  962105524 heartbeat IPC: 0.36206 cumulative IPC: 0.32514 (Simulation time: 0 hr 15 min 12 sec) 
Heartbeat CPU  0 instructions:  379000000 cycles:  964960365 heartbeat IPC: 0.35028 cumulative IPC: 0.32522 (Simulation time: 0 hr 15 min 14 sec) 
Heartbeat CPU  0 instructions:  380000000 cycles:  967790520 heartbeat IPC: 0.35334 cumulative IPC: 0.32532 (Simulation time: 0 hr 15 min 16 sec) 
Heartbeat CPU  0 instructions:  381000002 cycles:  970703096 heartbeat IPC: 0.34334 cumulative IPC: 0.32538 (Simulation time: 0 hr 15 min 19 sec) 
Heartbeat CPU  0 instructions:  382000000 cycles:  973416419 heartbeat IPC: 0.36855 cumulative IPC: 0.32551 (Simulation time: 0 hr 15 min 21 sec) 
Heartbeat CPU  0 instructions:  383000001 cycles:  976197854 heartbeat IPC: 0.35953 cumulative IPC: 0.32562 (Simulation time: 0 hr 15 min 23 sec) 
Heartbeat CPU  0 instructions:  384000000 cycles:  978996308 heartbeat IPC: 0.35734 cumulative IPC: 0.32572 (Simulation time: 0 hr 15 min 26 sec) 
Heartbeat CPU  0 instructions:  385000002 cycles:  981716370 heartbeat IPC: 0.36764 cumulative IPC: 0.32585 (Simulation time: 0 hr 15 min 28 sec) 
Heartbeat CPU  0 instructions:  386000000 cycles:  984290406 heartbeat IPC: 0.38849 cumulative IPC: 0.32604 (Simulation time: 0 hr 15 min 30 sec) 
Heartbeat CPU  0 instructions:  387000000 cycles:  986899941 heartbeat IPC: 0.38321 cumulative IPC: 0.32621 (Simulation time: 0 hr 15 min 33 sec) 
Heartbeat CPU  0 instructions:  388000000 cycles:  989764759 heartbeat IPC: 0.34906 cumulative IPC: 0.32628 (Simulation time: 0 hr 15 min 35 sec) 
Heartbeat CPU  0 instructions:  389000000 cycles:  992432891 heartbeat IPC: 0.37479 cumulative IPC: 0.32643 (Simulation time: 0 hr 15 min 37 sec) 
Heartbeat CPU  0 instructions:  390000001 cycles:  995547973 heartbeat IPC: 0.32102 cumulative IPC: 0.32641 (Simulation time: 0 hr 15 min 40 sec) 
Heartbeat CPU  0 instructions:  391000001 cycles:  998331383 heartbeat IPC: 0.35927 cumulative IPC: 0.32651 (Simulation time: 0 hr 15 min 42 sec) 
Heartbeat CPU  0 instructions:  392000000 cycles: 1000980247 heartbeat IPC: 0.37752 cumulative IPC: 0.32666 (Simulation time: 0 hr 15 min 45 sec) 
Heartbeat CPU  0 instructions:  393000001 cycles: 1003772168 heartbeat IPC: 0.35818 cumulative IPC: 0.32676 (Simulation time: 0 hr 15 min 47 sec) 
Heartbeat CPU  0 instructions:  394000002 cycles: 1006531534 heartbeat IPC: 0.36240 cumulative IPC: 0.32687 (Simulation time: 0 hr 15 min 50 sec) 
Heartbeat CPU  0 instructions:  395000000 cycles: 1009218579 heartbeat IPC: 0.37216 cumulative IPC: 0.32700 (Simulation time: 0 hr 15 min 52 sec) 
Heartbeat CPU  0 instructions:  396000000 cycles: 1012093265 heartbeat IPC: 0.34786 cumulative IPC: 0.32707 (Simulation time: 0 hr 15 min 54 sec) 
Heartbeat CPU  0 instructions:  397000000 cycles: 1014913760 heartbeat IPC: 0.35455 cumulative IPC: 0.32716 (Simulation time: 0 hr 15 min 57 sec) 
Heartbeat CPU  0 instructions:  398000000 cycles: 1017449196 heartbeat IPC: 0.39441 cumulative IPC: 0.32734 (Simulation time: 0 hr 15 min 59 sec) 
Heartbeat CPU  0 instructions:  399000000 cycles: 1020295413 heartbeat IPC: 0.35134 cumulative IPC: 0.32742 (Simulation time: 0 hr 16 min 1 sec) 
Heartbeat CPU  0 instructions:  400000000 cycles: 1022896256 heartbeat IPC: 0.38449 cumulative IPC: 0.32758 (Simulation time: 0 hr 16 min 4 sec) 
Heartbeat CPU  0 instructions:  401000003 cycles: 1025663827 heartbeat IPC: 0.36133 cumulative IPC: 0.32768 (Simulation time: 0 hr 16 min 6 sec) 
Heartbeat CPU  0 instructions:  402000001 cycles: 1028272494 heartbeat IPC: 0.38334 cumulative IPC: 0.32784 (Simulation time: 0 hr 16 min 8 sec) 
Heartbeat CPU  0 instructions:  403000001 cycles: 1030763443 heartbeat IPC: 0.40145 cumulative IPC: 0.32804 (Simulation time: 0 hr 16 min 11 sec) 
Heartbeat CPU  0 instructions:  404000000 cycles: 1033630979 heartbeat IPC: 0.34873 cumulative IPC: 0.32810 (Simulation time: 0 hr 16 min 13 sec) 
Heartbeat CPU  0 instructions:  405000001 cycles: 1036468846 heartbeat IPC: 0.35238 cumulative IPC: 0.32818 (Simulation time: 0 hr 16 min 15 sec) 
Heartbeat CPU  0 instructions:  406000002 cycles: 1039310841 heartbeat IPC: 0.35187 cumulative IPC: 0.32825 (Simulation time: 0 hr 16 min 18 sec) 
Heartbeat CPU  0 instructions:  407000000 cycles: 1041973273 heartbeat IPC: 0.37560 cumulative IPC: 0.32838 (Simulation time: 0 hr 16 min 20 sec) 
Heartbeat CPU  0 instructions:  408000000 cycles: 1044735456 heartbeat IPC: 0.36203 cumulative IPC: 0.32848 (Simulation time: 0 hr 16 min 22 sec) 
Heartbeat CPU  0 instructions:  409000003 cycles: 1047474406 heartbeat IPC: 0.36510 cumulative IPC: 0.32859 (Simulation time: 0 hr 16 min 25 sec) 
Heartbeat CPU  0 instructions:  410000002 cycles: 1050132007 heartbeat IPC: 0.37628 cumulative IPC: 0.32872 (Simulation time: 0 hr 16 min 27 sec) 
Heartbeat CPU  0 instructions:  411000000 cycles: 1052905136 heartbeat IPC: 0.36060 cumulative IPC: 0.32882 (Simulation time: 0 hr 16 min 29 sec) 
Heartbeat CPU  0 instructions:  412000000 cycles: 1055585604 heartbeat IPC: 0.37307 cumulative IPC: 0.32894 (Simulation time: 0 hr 16 min 31 sec) 
Heartbeat CPU  0 instructions:  413000001 cycles: 1058395297 heartbeat IPC: 0.35591 cumulative IPC: 0.32902 (Simulation time: 0 hr 16 min 34 sec) 
Heartbeat CPU  0 instructions:  414000003 cycles: 1061051245 heartbeat IPC: 0.37651 cumulative IPC: 0.32915 (Simulation time: 0 hr 16 min 36 sec) 
Heartbeat CPU  0 instructions:  415000002 cycles: 1063723144 heartbeat IPC: 0.37427 cumulative IPC: 0.32928 (Simulation time: 0 hr 16 min 38 sec) 
Heartbeat CPU  0 instructions:  416000000 cycles: 1066415581 heartbeat IPC: 0.37141 cumulative IPC: 0.32940 (Simulation time: 0 hr 16 min 41 sec) 
Heartbeat CPU  0 instructions:  417000003 cycles: 1069166883 heartbeat IPC: 0.36347 cumulative IPC: 0.32950 (Simulation time: 0 hr 16 min 43 sec) 
Heartbeat CPU  0 instructions:  418000001 cycles: 1071934281 heartbeat IPC: 0.36135 cumulative IPC: 0.32959 (Simulation time: 0 hr 16 min 45 sec) 
Heartbeat CPU  0 instructions:  419000000 cycles: 1074755962 heartbeat IPC: 0.35440 cumulative IPC: 0.32966 (Simulation time: 0 hr 16 min 48 sec) 
Heartbeat CPU  0 instructions:  420000000 cycles: 1077504205 heartbeat IPC: 0.36387 cumulative IPC: 0.32976 (Simulation time: 0 hr 16 min 50 sec) 
Heartbeat CPU  0 instructions:  421000000 cycles: 1080037342 heartbeat IPC: 0.39477 cumulative IPC: 0.32993 (Simulation time: 0 hr 16 min 52 sec) 
Heartbeat CPU  0 instructions:  422000001 cycles: 1082866371 heartbeat IPC: 0.35348 cumulative IPC: 0.32999 (Simulation time: 0 hr 16 min 55 sec) 
Heartbeat CPU  0 instructions:  423000003 cycles: 1085573801 heartbeat IPC: 0.36935 cumulative IPC: 0.33010 (Simulation time: 0 hr 16 min 57 sec) 
Heartbeat CPU  0 instructions:  424000000 cycles: 1088164748 heartbeat IPC: 0.38596 cumulative IPC: 0.33025 (Simulation time: 0 hr 16 min 59 sec) 
Heartbeat CPU  0 instructions:  425000001 cycles: 1090894218 heartbeat IPC: 0.36637 cumulative IPC: 0.33035 (Simulation time: 0 hr 17 min 2 sec) 
Heartbeat CPU  0 instructions:  426000003 cycles: 1093441654 heartbeat IPC: 0.39255 cumulative IPC: 0.33051 (Simulation time: 0 hr 17 min 4 sec) 
Heartbeat CPU  0 instructions:  427000002 cycles: 1096031796 heartbeat IPC: 0.38608 cumulative IPC: 0.33066 (Simulation time: 0 hr 17 min 6 sec) 
Heartbeat CPU  0 instructions:  428000000 cycles: 1098619419 heartbeat IPC: 0.38645 cumulative IPC: 0.33080 (Simulation time: 0 hr 17 min 8 sec) 
Heartbeat CPU  0 instructions:  429000003 cycles: 1101180078 heartbeat IPC: 0.39053 cumulative IPC: 0.33096 (Simulation time: 0 hr 17 min 11 sec) 
Heartbeat CPU  0 instructions:  430000002 cycles: 1103937082 heartbeat IPC: 0.36271 cumulative IPC: 0.33104 (Simulation time: 0 hr 17 min 13 sec) 
Heartbeat CPU  0 instructions:  431000001 cycles: 1106460288 heartbeat IPC: 0.39632 cumulative IPC: 0.33121 (Simulation time: 0 hr 17 min 15 sec) 
Heartbeat CPU  0 instructions:  432000000 cycles: 1109165541 heartbeat IPC: 0.36965 cumulative IPC: 0.33131 (Simulation time: 0 hr 17 min 17 sec) 
Heartbeat CPU  0 instructions:  433000003 cycles: 1111855820 heartbeat IPC: 0.37171 cumulative IPC: 0.33142 (Simulation time: 0 hr 17 min 20 sec) 
Heartbeat CPU  0 instructions:  434000000 cycles: 1114424442 heartbeat IPC: 0.38931 cumulative IPC: 0.33157 (Simulation time: 0 hr 17 min 22 sec) 
Heartbeat CPU  0 instructions:  435000000 cycles: 1117225347 heartbeat IPC: 0.35703 cumulative IPC: 0.33164 (Simulation time: 0 hr 17 min 24 sec) 
Heartbeat CPU  0 instructions:  436000000 cycles: 1119561537 heartbeat IPC: 0.42805 cumulative IPC: 0.33186 (Simulation time: 0 hr 17 min 27 sec) 
Heartbeat CPU  0 instructions:  437000003 cycles: 1122135493 heartbeat IPC: 0.38851 cumulative IPC: 0.33200 (Simulation time: 0 hr 17 min 29 sec) 
Heartbeat CPU  0 instructions:  438000001 cycles: 1125010746 heartbeat IPC: 0.34779 cumulative IPC: 0.33205 (Simulation time: 0 hr 17 min 31 sec) 
Heartbeat CPU  0 instructions:  439000000 cycles: 1127915811 heartbeat IPC: 0.34423 cumulative IPC: 0.33208 (Simulation time: 0 hr 17 min 33 sec) 
Heartbeat CPU  0 instructions:  440000000 cycles: 1130682155 heartbeat IPC: 0.36149 cumulative IPC: 0.33216 (Simulation time: 0 hr 17 min 36 sec) 
Heartbeat CPU  0 instructions:  441000003 cycles: 1133472807 heartbeat IPC: 0.35834 cumulative IPC: 0.33223 (Simulation time: 0 hr 17 min 38 sec) 
Heartbeat CPU  0 instructions:  442000002 cycles: 1136233726 heartbeat IPC: 0.36220 cumulative IPC: 0.33232 (Simulation time: 0 hr 17 min 41 sec) 
Heartbeat CPU  0 instructions:  443000001 cycles: 1139070228 heartbeat IPC: 0.35255 cumulative IPC: 0.33237 (Simulation time: 0 hr 17 min 43 sec) 
Heartbeat CPU  0 instructions:  444000000 cycles: 1141846915 heartbeat IPC: 0.36014 cumulative IPC: 0.33245 (Simulation time: 0 hr 17 min 45 sec) 
Heartbeat CPU  0 instructions:  445000000 cycles: 1144708530 heartbeat IPC: 0.34945 cumulative IPC: 0.33249 (Simulation time: 0 hr 17 min 48 sec) 
Heartbeat CPU  0 instructions:  446000000 cycles: 1147559676 heartbeat IPC: 0.35074 cumulative IPC: 0.33254 (Simulation time: 0 hr 17 min 50 sec) 
Heartbeat CPU  0 instructions:  447000000 cycles: 1150354945 heartbeat IPC: 0.35775 cumulative IPC: 0.33261 (Simulation time: 0 hr 17 min 52 sec) 
Heartbeat CPU  0 instructions:  448000000 cycles: 1152882082 heartbeat IPC: 0.39570 cumulative IPC: 0.33276 (Simulation time: 0 hr 17 min 55 sec) 
Heartbeat CPU  0 instructions:  449000001 cycles: 1155751651 heartbeat IPC: 0.34848 cumulative IPC: 0.33281 (Simulation time: 0 hr 17 min 57 sec) 
Heartbeat CPU  0 instructions:  450000002 cycles: 1158524273 heartbeat IPC: 0.36067 cumulative IPC: 0.33288 (Simulation time: 0 hr 17 min 59 sec) 
Heartbeat CPU  0 instructions:  451000001 cycles: 1161212725 heartbeat IPC: 0.37196 cumulative IPC: 0.33298 (Simulation time: 0 hr 18 min 2 sec) 
Heartbeat CPU  0 instructions:  452000000 cycles: 1164033371 heartbeat IPC: 0.35453 cumulative IPC: 0.33304 (Simulation time: 0 hr 18 min 4 sec) 
Heartbeat CPU  0 instructions:  453000001 cycles: 1166828749 heartbeat IPC: 0.35773 cumulative IPC: 0.33310 (Simulation time: 0 hr 18 min 6 sec) 
Heartbeat CPU  0 instructions:  454000003 cycles: 1169685459 heartbeat IPC: 0.35005 cumulative IPC: 0.33315 (Simulation time: 0 hr 18 min 9 sec) 
Heartbeat CPU  0 instructions:  455000000 cycles: 1172399036 heartbeat IPC: 0.36852 cumulative IPC: 0.33324 (Simulation time: 0 hr 18 min 11 sec) 
Heartbeat CPU  0 instructions:  456000000 cycles: 1175224871 heartbeat IPC: 0.35388 cumulative IPC: 0.33329 (Simulation time: 0 hr 18 min 13 sec) 
Heartbeat CPU  0 instructions:  457000000 cycles: 1177951147 heartbeat IPC: 0.36680 cumulative IPC: 0.33338 (Simulation time: 0 hr 18 min 16 sec) 
Heartbeat CPU  0 instructions:  458000003 cycles: 1180740758 heartbeat IPC: 0.35847 cumulative IPC: 0.33344 (Simulation time: 0 hr 18 min 18 sec) 
Heartbeat CPU  0 instructions:  459000001 cycles: 1183477109 heartbeat IPC: 0.36545 cumulative IPC: 0.33352 (Simulation time: 0 hr 18 min 20 sec) 
Heartbeat CPU  0 instructions:  460000000 cycles: 1186208895 heartbeat IPC: 0.36606 cumulative IPC: 0.33361 (Simulation time: 0 hr 18 min 23 sec) 
Heartbeat CPU  0 instructions:  461000002 cycles: 1188985223 heartbeat IPC: 0.36019 cumulative IPC: 0.33367 (Simulation time: 0 hr 18 min 25 sec) 
Heartbeat CPU  0 instructions:  462000001 cycles: 1191709790 heartbeat IPC: 0.36703 cumulative IPC: 0.33376 (Simulation time: 0 hr 18 min 27 sec) 
Heartbeat CPU  0 instructions:  463000001 cycles: 1194537281 heartbeat IPC: 0.35367 cumulative IPC: 0.33381 (Simulation time: 0 hr 18 min 30 sec) 
Heartbeat CPU  0 instructions:  464000000 cycles: 1197346041 heartbeat IPC: 0.35603 cumulative IPC: 0.33387 (Simulation time: 0 hr 18 min 32 sec) 
Heartbeat CPU  0 instructions:  465000001 cycles: 1199971989 heartbeat IPC: 0.38082 cumulative IPC: 0.33398 (Simulation time: 0 hr 18 min 34 sec) 
Heartbeat CPU  0 instructions:  466000000 cycles: 1202691802 heartbeat IPC: 0.36767 cumulative IPC: 0.33406 (Simulation time: 0 hr 18 min 37 sec) 
Heartbeat CPU  0 instructions:  467000003 cycles: 1205399529 heartbeat IPC: 0.36931 cumulative IPC: 0.33415 (Simulation time: 0 hr 18 min 39 sec) 
Heartbeat CPU  0 instructions:  468000000 cycles: 1208041278 heartbeat IPC: 0.37854 cumulative IPC: 0.33426 (Simulation time: 0 hr 18 min 41 sec) 
Heartbeat CPU  0 instructions:  469000002 cycles: 1210620827 heartbeat IPC: 0.38767 cumulative IPC: 0.33438 (Simulation time: 0 hr 18 min 43 sec) 
Heartbeat CPU  0 instructions:  470000000 cycles: 1213323442 heartbeat IPC: 0.37001 cumulative IPC: 0.33447 (Simulation time: 0 hr 18 min 46 sec) 
Heartbeat CPU  0 instructions:  471000000 cycles: 1215915253 heartbeat IPC: 0.38583 cumulative IPC: 0.33459 (Simulation time: 0 hr 18 min 48 sec) 
Heartbeat CPU  0 instructions:  472000000 cycles: 1218583410 heartbeat IPC: 0.37479 cumulative IPC: 0.33468 (Simulation time: 0 hr 18 min 51 sec) 
Heartbeat CPU  0 instructions:  473000001 cycles: 1221510243 heartbeat IPC: 0.34167 cumulative IPC: 0.33470 (Simulation time: 0 hr 18 min 53 sec) 
Heartbeat CPU  0 instructions:  474000000 cycles: 1224127887 heartbeat IPC: 0.38202 cumulative IPC: 0.33481 (Simulation time: 0 hr 18 min 55 sec) 
Heartbeat CPU  0 instructions:  475000000 cycles: 1226948333 heartbeat IPC: 0.35455 cumulative IPC: 0.33486 (Simulation time: 0 hr 18 min 57 sec) 
Heartbeat CPU  0 instructions:  476000000 cycles: 1229765164 heartbeat IPC: 0.35501 cumulative IPC: 0.33491 (Simulation time: 0 hr 19 min 0 sec) 
Heartbeat CPU  0 instructions:  477000003 cycles: 1232496398 heartbeat IPC: 0.36614 cumulative IPC: 0.33499 (Simulation time: 0 hr 19 min 2 sec) 
Heartbeat CPU  0 instructions:  478000001 cycles: 1235155913 heartbeat IPC: 0.37601 cumulative IPC: 0.33509 (Simulation time: 0 hr 19 min 4 sec) 
Heartbeat CPU  0 instructions:  479000001 cycles: 1237758749 heartbeat IPC: 0.38420 cumulative IPC: 0.33520 (Simulation time: 0 hr 19 min 7 sec) 
Heartbeat CPU  0 instructions:  480000000 cycles: 1240620094 heartbeat IPC: 0.34949 cumulative IPC: 0.33524 (Simulation time: 0 hr 19 min 9 sec) 
Heartbeat CPU  0 instructions:  481000000 cycles: 1243296757 heartbeat IPC: 0.37360 cumulative IPC: 0.33533 (Simulation time: 0 hr 19 min 11 sec) 
Heartbeat CPU  0 instructions:  482000000 cycles: 1245926825 heartbeat IPC: 0.38022 cumulative IPC: 0.33543 (Simulation time: 0 hr 19 min 14 sec) 
Heartbeat CPU  0 instructions:  483000000 cycles: 1248487684 heartbeat IPC: 0.39049 cumulative IPC: 0.33555 (Simulation time: 0 hr 19 min 16 sec) 
Heartbeat CPU  0 instructions:  484000000 cycles: 1251181194 heartbeat IPC: 0.37126 cumulative IPC: 0.33564 (Simulation time: 0 hr 19 min 18 sec) 
Heartbeat CPU  0 instructions:  485000000 cycles: 1253839683 heartbeat IPC: 0.37615 cumulative IPC: 0.33573 (Simulation time: 0 hr 19 min 21 sec) 
Heartbeat CPU  0 instructions:  486000000 cycles: 1256449734 heartbeat IPC: 0.38313 cumulative IPC: 0.33584 (Simulation time: 0 hr 19 min 23 sec) 
Heartbeat CPU  0 instructions:  487000003 cycles: 1259256410 heartbeat IPC: 0.35629 cumulative IPC: 0.33589 (Simulation time: 0 hr 19 min 25 sec) 
Heartbeat CPU  0 instructions:  488000000 cycles: 1262058636 heartbeat IPC: 0.35686 cumulative IPC: 0.33594 (Simulation time: 0 hr 19 min 28 sec) 
Heartbeat CPU  0 instructions:  489000000 cycles: 1264772326 heartbeat IPC: 0.36850 cumulative IPC: 0.33602 (Simulation time: 0 hr 19 min 30 sec) 
Heartbeat CPU  0 instructions:  490000003 cycles: 1267536993 heartbeat IPC: 0.36171 cumulative IPC: 0.33608 (Simulation time: 0 hr 19 min 32 sec) 
Heartbeat CPU  0 instructions:  491000001 cycles: 1270262202 heartbeat IPC: 0.36694 cumulative IPC: 0.33615 (Simulation time: 0 hr 19 min 34 sec) 
Heartbeat CPU  0 instructions:  492000000 cycles: 1273044037 heartbeat IPC: 0.35947 cumulative IPC: 0.33621 (Simulation time: 0 hr 19 min 37 sec) 
Heartbeat CPU  0 instructions:  493000000 cycles: 1275730970 heartbeat IPC: 0.37217 cumulative IPC: 0.33629 (Simulation time: 0 hr 19 min 39 sec) 
Heartbeat CPU  0 instructions:  494000000 cycles: 1278371523 heartbeat IPC: 0.37871 cumulative IPC: 0.33638 (Simulation time: 0 hr 19 min 42 sec) 
Heartbeat CPU  0 instructions:  495000001 cycles: 1281212589 heartbeat IPC: 0.35198 cumulative IPC: 0.33642 (Simulation time: 0 hr 19 min 44 sec) 
Heartbeat CPU  0 instructions:  496000000 cycles: 1283972191 heartbeat IPC: 0.36237 cumulative IPC: 0.33648 (Simulation time: 0 hr 19 min 46 sec) 
Heartbeat CPU  0 instructions:  497000001 cycles: 1286754085 heartbeat IPC: 0.35947 cumulative IPC: 0.33654 (Simulation time: 0 hr 19 min 49 sec) 
Heartbeat CPU  0 instructions:  498000000 cycles: 1289527053 heartbeat IPC: 0.36062 cumulative IPC: 0.33659 (Simulation time: 0 hr 19 min 51 sec) 
Heartbeat CPU  0 instructions:  499000002 cycles: 1292266597 heartbeat IPC: 0.36502 cumulative IPC: 0.33666 (Simulation time: 0 hr 19 min 53 sec) 
Heartbeat CPU  0 instructions:  500000000 cycles: 1294960715 heartbeat IPC: 0.37118 cumulative IPC: 0.33674 (Simulation time: 0 hr 19 min 55 sec) 
Heartbeat CPU  0 instructions:  501000000 cycles: 1297689125 heartbeat IPC: 0.36651 cumulative IPC: 0.33681 (Simulation time: 0 hr 19 min 58 sec) 
Heartbeat CPU  0 instructions:  502000000 cycles: 1300474257 heartbeat IPC: 0.35905 cumulative IPC: 0.33686 (Simulation time: 0 hr 20 min 0 sec) 
Heartbeat CPU  0 instructions:  503000002 cycles: 1303300815 heartbeat IPC: 0.35379 cumulative IPC: 0.33690 (Simulation time: 0 hr 20 min 2 sec) 
Heartbeat CPU  0 instructions:  504000000 cycles: 1306134928 heartbeat IPC: 0.35284 cumulative IPC: 0.33693 (Simulation time: 0 hr 20 min 5 sec) 
Heartbeat CPU  0 instructions:  505000001 cycles: 1308756289 heartbeat IPC: 0.38148 cumulative IPC: 0.33703 (Simulation time: 0 hr 20 min 7 sec) 
Heartbeat CPU  0 instructions:  506000001 cycles: 1311580368 heartbeat IPC: 0.35410 cumulative IPC: 0.33707 (Simulation time: 0 hr 20 min 9 sec) 
Heartbeat CPU  0 instructions:  507000001 cycles: 1314423761 heartbeat IPC: 0.35169 cumulative IPC: 0.33711 (Simulation time: 0 hr 20 min 12 sec) 
Heartbeat CPU  0 instructions:  508000000 cycles: 1317167268 heartbeat IPC: 0.36450 cumulative IPC: 0.33717 (Simulation time: 0 hr 20 min 14 sec) 
Heartbeat CPU  0 instructions:  509000001 cycles: 1319755308 heartbeat IPC: 0.38639 cumulative IPC: 0.33727 (Simulation time: 0 hr 20 min 16 sec) 
Heartbeat CPU  0 instructions:  510000003 cycles: 1322497697 heartbeat IPC: 0.36465 cumulative IPC: 0.33734 (Simulation time: 0 hr 20 min 19 sec) 
Heartbeat CPU  0 instructions:  511000001 cycles: 1324940506 heartbeat IPC: 0.40936 cumulative IPC: 0.33748 (Simulation time: 0 hr 20 min 21 sec) 
Heartbeat CPU  0 instructions:  512000000 cycles: 1327694090 heartbeat IPC: 0.36316 cumulative IPC: 0.33754 (Simulation time: 0 hr 20 min 23 sec) 
Heartbeat CPU  0 instructions:  513000001 cycles: 1330400027 heartbeat IPC: 0.36956 cumulative IPC: 0.33761 (Simulation time: 0 hr 20 min 25 sec) 
Heartbeat CPU  0 instructions:  514000002 cycles: 1333097246 heartbeat IPC: 0.37075 cumulative IPC: 0.33768 (Simulation time: 0 hr 20 min 28 sec) 
Heartbeat CPU  0 instructions:  515000001 cycles: 1335628855 heartbeat IPC: 0.39501 cumulative IPC: 0.33780 (Simulation time: 0 hr 20 min 30 sec) 
Heartbeat CPU  0 instructions:  516000000 cycles: 1338134506 heartbeat IPC: 0.39910 cumulative IPC: 0.33792 (Simulation time: 0 hr 20 min 32 sec) 
Heartbeat CPU  0 instructions:  517000002 cycles: 1340959620 heartbeat IPC: 0.35397 cumulative IPC: 0.33796 (Simulation time: 0 hr 20 min 34 sec) 
Heartbeat CPU  0 instructions:  518000001 cycles: 1343772292 heartbeat IPC: 0.35553 cumulative IPC: 0.33800 (Simulation time: 0 hr 20 min 37 sec) 
Heartbeat CPU  0 instructions:  519000001 cycles: 1346484848 heartbeat IPC: 0.36866 cumulative IPC: 0.33807 (Simulation time: 0 hr 20 min 39 sec) 
Heartbeat CPU  0 instructions:  520000000 cycles: 1349292778 heartbeat IPC: 0.35613 cumulative IPC: 0.33811 (Simulation time: 0 hr 20 min 41 sec) 
Heartbeat CPU  0 instructions:  521000000 cycles: 1351953423 heartbeat IPC: 0.37585 cumulative IPC: 0.33819 (Simulation time: 0 hr 20 min 43 sec) 
Heartbeat CPU  0 instructions:  522000000 cycles: 1354610669 heartbeat IPC: 0.37633 cumulative IPC: 0.33827 (Simulation time: 0 hr 20 min 46 sec) 
Heartbeat CPU  0 instructions:  523000002 cycles: 1357089951 heartbeat IPC: 0.40334 cumulative IPC: 0.33840 (Simulation time: 0 hr 20 min 48 sec) 
Heartbeat CPU  0 instructions:  524000000 cycles: 1359874832 heartbeat IPC: 0.35908 cumulative IPC: 0.33845 (Simulation time: 0 hr 20 min 50 sec) 
Heartbeat CPU  0 instructions:  525000000 cycles: 1362483445 heartbeat IPC: 0.38335 cumulative IPC: 0.33854 (Simulation time: 0 hr 20 min 52 sec) 
Heartbeat CPU  0 instructions:  526000000 cycles: 1365223175 heartbeat IPC: 0.36500 cumulative IPC: 0.33860 (Simulation time: 0 hr 20 min 55 sec) 
Heartbeat CPU  0 instructions:  527000000 cycles: 1367585150 heartbeat IPC: 0.42337 cumulative IPC: 0.33876 (Simulation time: 0 hr 20 min 57 sec) 
Heartbeat CPU  0 instructions:  528000000 cycles: 1370117482 heartbeat IPC: 0.39489 cumulative IPC: 0.33887 (Simulation time: 0 hr 20 min 59 sec) 
[...]
Heartbeat CPU  0 instructions:  600000000 cycles: 1561545579 heartbeat IPC: 0.41144 cumulative IPC: 0.34377 (Simulation time: 0 hr 23 min 43 sec) 
Finished CPU 0 instructions: 500000000 cycles: 1454455456 cumulative IPC: 0.34377 (Simulation time: 0 hr 23 min 43 sec) 

ChampSim completed all CPUs

[ROI Statistics]
Core_0_instructions 500000000
Core_0_cycles 1454455456
Core_0_IPC 0.34377

Core_0_branch_prediction_accuracy 85.18932
Core_0_branch_MPKI 24.43069
Core_0_average_ROB_occupancy_at_mispredict 38.25024

Core_0_L1D_total_access 156097394
Core_0_L1D_total_hit 153781769
Core_0_L1D_total_miss 2315625
Core_0_L1D_loads 90203733
Core_0_L1D_load_hit 89374206
Core_0_L1D_load_miss 829527
Core_0_L1D_RFOs 65893661
Core_0_L1D_RFO_hit 64407563
Core_0_L1D_RFO_miss 1486098
Core_0_L1D_prefetches 0
Core_0_L1D_prefetch_hit 0
Core_0_L1D_prefetch_miss 0
Core_0_L1D_writebacks 0
Core_0_L1D_writeback_hit 0
Core_0_L1D_writeback_miss 0
Core_0_L1D_prefetch_requested 0
Core_0_L1D_prefetch_dropped 0
Core_0_L1D_prefetch_issued 0
Core_0_L1D_prefetch_filled 0
Core_0_L1D_prefetch_useful 0
Core_0_L1D_prefetch_useless 0
Core_0_L1D_prefetch_late 0
Core_0_L1D_average_miss_latency 1180.09651

Core_0_L1D_rq_access 125889998
Core_0_L1D_rq_forward 0
Core_0_L1D_rq_merged 35593838
Core_0_L1D_rq_to_cache 90295662
Core_0_L1D_rq_full 0

Core_0_L1D_wq_access 70505122
Core_0_L1D_wq_forward 498
Core_0_L1D_wq_merged 423545
Core_0_L1D_wq_to_cache 70081577
Core_0_L1D_wq_full 158192094

Core_0_L1D_pq_access 0
Core_0_L1D_pq_forward 0
Core_0_L1D_pq_merged 0
Core_0_L1D_pq_to_cache 0
Core_0_L1D_pq_full 0

Core_0_L1D_acc_epochs 1522693
Core_0_L1D_acc_level_0 1522693
Core_0_L1D_acc_level_1 0
Core_0_L1D_acc_level_2 0
Core_0_L1D_acc_level_3 0
Core_0_L1D_acc_level_4 0
Core_0_L1D_acc_level_5 0
Core_0_L1D_acc_level_6 0
Core_0_L1D_acc_level_7 0
Core_0_L1D_acc_level_8 0
Core_0_L1D_acc_level_9 0

Core_0_L1I_total_access 99476399
Core_0_L1I_total_hit 97531466
Core_0_L1I_total_miss 1944933
Core_0_L1I_loads 99476399
Core_0_L1I_load_hit 97531466
Core_0_L1I_load_miss 1944933
Core_0_L1I_RFOs 0
Core_0_L1I_RFO_hit 0
Core_0_L1I_RFO_miss 0
Core_0_L1I_prefetches 0
Core_0_L1I_prefetch_hit 0
Core_0_L1I_prefetch_miss 0
Core_0_L1I_writebacks 0
Core_0_L1I_writeback_hit 0
Core_0_L1I_writeback_miss 0
Core_0_L1I_prefetch_requested 0
Core_0_L1I_prefetch_dropped 0
Core_0_L1I_prefetch_issued 0
Core_0_L1I_prefetch_filled 0
Core_0_L1I_prefetch_useful 0
Core_0_L1I_prefetch_useless 0
Core_0_L1I_prefetch_late 0
Core_0_L1I_average_miss_latency 13.27639

Core_0_L1I_rq_access 499999934
Core_0_L1I_rq_forward 0
Core_0_L1I_rq_merged 399807709
Core_0_L1I_rq_to_cache 100192225
Core_0_L1I_rq_full 0

Core_0_L1I_wq_access 0
Core_0_L1I_wq_forward 0
Core_0_L1I_wq_merged 0
Core_0_L1I_wq_to_cache 0
Core_0_L1I_wq_full 0

Core_0_L1I_pq_access 0
Core_0_L1I_pq_forward 0
Core_0_L1I_pq_merged 0
Core_0_L1I_pq_to_cache 0
Core_0_L1I_pq_full 0

Core_0_L1I_acc_epochs 1522693
Core_0_L1I_acc_level_0 1522693
Core_0_L1I_acc_level_1 0
Core_0_L1I_acc_level_2 0
Core_0_L1I_acc_level_3 0
Core_0_L1I_acc_level_4 0
Core_0_L1I_acc_level_5 0
Core_0_L1I_acc_level_6 0
Core_0_L1I_acc_level_7 0
Core_0_L1I_acc_level_8 0
Core_0_L1I_acc_level_9 0

Core_0_L2C_total_access 6067499
Core_0_L2C_total_hit 4703320
Core_0_L2C_total_miss 1364179
Core_0_L2C_loads 2774439
Core_0_L2C_load_hit 2329627
Core_0_L2C_load_miss 444812
Core_0_L2C_RFOs 1486053
Core_0_L2C_RFO_hit 609081
Core_0_L2C_RFO_miss 876972
Core_0_L2C_prefetches 52827
Core_0_L2C_prefetch_hit 12649
Core_0_L2C_prefetch_miss 40178
Core_0_L2C_writebacks 1754180
Core_0_L2C_writeback_hit 1751963
Core_0_L2C_writeback_miss 2217
Core_0_L2C_prefetch_requested 324221
Core_0_L2C_prefetch_dropped 0
Core_0_L2C_prefetch_issued 324221
Core_0_L2C_prefetch_filled 46944
Core_0_L2C_prefetch_useful 16481
Core_0_L2C_prefetch_useless 30463
Core_0_L2C_prefetch_late 2354
Core_0_L2C_average_miss_latency 1994.34848

Core_0_L2C_rq_access 4260558
Core_0_L2C_rq_forward 0
Core_0_L2C_rq_merged 0
Core_0_L2C_rq_to_cache 4260492
Core_0_L2C_rq_full 0

Core_0_L2C_wq_access 1754180
Core_0_L2C_wq_forward 66
Core_0_L2C_wq_merged 0
Core_0_L2C_wq_to_cache 1754180
Core_0_L2C_wq_full 0

Core_0_L2C_pq_access 324221
Core_0_L2C_pq_forward 0
Core_0_L2C_pq_merged 842
Core_0_L2C_pq_to_cache 323379
Core_0_L2C_pq_full 0

Core_0_L2C_acc_epochs 1522693
Core_0_L2C_acc_level_0 1509541
Core_0_L2C_acc_level_1 4915
Core_0_L2C_acc_level_2 3712
Core_0_L2C_acc_level_3 616
Core_0_L2C_acc_level_4 217
Core_0_L2C_acc_level_5 2519
Core_0_L2C_acc_level_6 216
Core_0_L2C_acc_level_7 212
Core_0_L2C_acc_level_8 127
Core_0_L2C_acc_level_9 618

Core_0_LLC_total_access 2557420
Core_0_LLC_total_hit 887156
Core_0_LLC_total_miss 1670264
Core_0_LLC_loads 442464
Core_0_LLC_load_hit 363882
Core_0_LLC_load_miss 78582
Core_0_LLC_RFOs 876969
Core_0_LLC_RFO_hit 124847
Core_0_LLC_RFO_miss 752122
Core_0_LLC_prefetches 212179
Core_0_LLC_prefetch_hit 46807
Core_0_LLC_prefetch_miss 165372
Core_0_LLC_writebacks 1025808
Core_0_LLC_writeback_hit 351620
Core_0_LLC_writeback_miss 674188
Core_0_LLC_prefetch_requested 0
Core_0_LLC_prefetch_dropped 0
Core_0_LLC_prefetch_issued 0
Core_0_LLC_prefetch_filled 246672
Core_0_LLC_prefetch_useful 63928
Core_0_LLC_prefetch_useless 176367
Core_0_LLC_prefetch_late 1569
Core_0_LLC_average_miss_latency 1656.17987

Core_0_LLC_rq_access 1319434
Core_0_LLC_rq_forward 0
Core_0_LLC_rq_merged 0
Core_0_LLC_rq_to_cache 1319433
Core_0_LLC_rq_full 0

Core_0_LLC_wq_access 1025808
Core_0_LLC_wq_forward 1
Core_0_LLC_wq_merged 0
Core_0_LLC_wq_to_cache 1025808
Core_0_LLC_wq_full 0

Core_0_LLC_pq_access 305185
Core_0_LLC_pq_forward 0
Core_0_LLC_pq_merged 48
Core_0_LLC_pq_to_cache 305137
Core_0_LLC_pq_full 0

Core_0_LLC_acc_epochs 1524947
Core_0_LLC_acc_level_0 1460892
Core_0_LLC_acc_level_1 26824
Core_0_LLC_acc_level_2 18809
Core_0_LLC_acc_level_3 1484
Core_0_LLC_acc_level_4 203
Core_0_LLC_acc_level_5 13741
Core_0_LLC_acc_level_6 234
Core_0_LLC_acc_level_7 365
Core_0_LLC_acc_level_8 89
Core_0_LLC_acc_level_9 2306

Core_0_major_page_fault 0
Core_0_minor_page_fault 6639

[MLOP] History of tracked zone:
IIIIIIIIIIIIIIIIIIIIIIIIIIIIIIIIIIIIIIIIIIIIIIIIIIIIIIIIIIIIIIII
IIIIIIIIIIIIIIIIIIIIIIIIIIIIIIIIIIIIIIIIIIIIIIIIAII2II4I44I4II4I
IIIIIIIIIIIIIIIIIIIIIIIIIIIIIIIIIIIIIIIIIIIIIIIIAII2II4I44IAII2I
IIIIIIIIIIIIIIIIIIIIIIIIIIIIIIIIIIIIIIIIIIIIIIIIAII2II4I44IAIA2I
IIIIIIIIIIIIIIIIIIIIIIIIIIIIIIIIIIIIIIIIIIIIIIIIAII2II4I44IAAA22
IIIIIIIIIIIIIIIIIIIIIIIIIIIIIIIIIIIIIIIIIIIIIIIIAII2II4I44AAAA22
IIIIIIIIIIIIIIIIIIIIIIIIIIIIIIIIIIIIIIIIIIIIIIIIAII2A44444AAAA22
IIIIIIIIIIIIIIIIIIIIIIIIIIIIIIIIIIIIIIIIIIIIIIIIA4I2A44444AAAA22
IIIIIIIIIIIIIIIIIIIIIIIIIIIIIIIIIIIIIIIIIIIIIIIIA4I2A4A444AAAA22
IIIIIIIIIIIIIIIIIIIIIIIIIIIIIIIIIIIIIIIIIIIIIIIIA4I2A4AA44AAAA22
IIIIIIIIIIIIIIIIIIIIIIIIIIIIIIIIIIIIIIIIIIIIIIIIA4I2A4AAA4AAAA22
IIIIIIIIIIIIIIIIIIIIIIIIIIIIIIIIIIIIIIIIIIIIIIIIA4I2A2AAA4AAAA22
IIIIIIIIIIIIIIIIIIIIIIIIIIIIIIIIIIIIIIIIIIIIIIIIA4I2A2AAA4AAAI22
IIIIIIIIIIIIIIIIIIIIIIIIIIIIIIIIIIIIIIIIIIIIIIIIA4I2A2AAA4AAAA22
IIIIIIIIIIIIIIIIIIIIIIIIIIIIIIIIIIIIIIIIIIIIIIIIA4I2A2AAA4AAAAI2
IIIIIIIIIIIIIIIIIIIIIIIIIIIIIIIIIIIIIIIIIIIIIIIIA4I2AAAAA4AAAA42
IIIIIIIIIIIIIIIIIIIIIIIIIIIIIIIIIIIIIIIIIIIIIIIIA4I2AAAAA4AAAA4I
IIIIIIIIIIIIIIIIIIIIIIIIIIIIIIIIIIIIIIIIIIIIIIIIA4I2AAAAA4AAAA44
IIIIIIIIIIIIIIIIIIIIIIIIIIIIIIIIIIIIIIIIIIIIIIIIA4IAAAAAA4AAAA44
IIIIIIIIIIIIIIIIIIIIIIIIIIIIIIIIIIIIIIIIIIIIIIIIA4IAAAAAA4AAAA24
IIIIIIIIIIIIIIIIIIIIIIIIIIIIIIIIIIIIIIIIIIIIIIIIA4IAAAAAA2AAAA24
IIIIIIIIIIIIIIIIIIIIIIIIIIIIIIIIIIIIIIIIIIIIIIIIA4IAAAAAA2AAAAA2
IIIIIIIIIIIIIIIIIIIIIIIIIIIIIIIIIIIIIIIIIIIIIIIIA4IAAAAAA2AAAAAA
IIIIIIIIIIIIIIIIIIIIIIIIIIIIIIIIIIIIIIIIIIIIIIIIA44AAAAAA2AAAAAA
IIIIIIIIIIIIIIIIIIIIIIIIIIIIIIIIIIIIIIIIIIIIIIIIA44AAAAAA2AIAAAA
IIIIIIIIIIIIIIIIIIIIIIIIIIIIIIIIIIIIIIIIIIIIIIIIA44AAAAAA2AIAIAA
IIIIIIIIIIIIIIIIIIIIIIIIIIIIIIIIIIIIIIIIIIIIIIIIA44AAAAAA2IIAIAA
IIIIIIIIIIIIIIIIIIIIIIIIIIIIIIIIIIIIIIIIIIIIIIIII44AAAAAA2IIAIAA
IIIIIIIIIIIIIIIIIIIIIIIIIIIIIIIIIIIIIIIIIIIIIIIII44AAAAAA2IIAIIA
IIIIIIIIIIIIIIIIIIIIIIIIIIIIIIIIIIIIIIIIIIIIIIIIA44AAAAAA244AIIA
IIIIIIIIIIIIIIIIIIIIIIIIIIIIIIIIIIIIIIIIIIIIIIIIA44AAAAAA244AIAA
IIIIIIIIIIIIIIIIIIIIIIIIIIIIIIIIIIIIIIIIIIIIIIIIA44AAAAAA244A4AA
IIIIIIIIIIIIIIIIIIIIIIIIIIIIIIIIIIIIIIIIIIIIIIIIA44AAAAAA2A4A4AA
IIIIIIIIIIIIIIIIIIIIIIIIIIIIIIIIIIIIIIIIIIIIIIIIA44AAAAAA2AAA4AA
IIIIIIIIIIIIIIIIIIIIIIIIIIIIIIIIIIIIIIIIIIIIIIIIA44AAAAAA2AAAAAA
IIIIIIIIIIIIIIIIIIIIIIIIIIIIIIIIIIIIIIIIIIIIIIIIA44AAAAAAAAAAAAA
IIIIIIIIIIIIIIIIIIIIIIIIIIIIIIIIIIII4III44III4I4A44AAAAAAAAAAAAA
IIIIIIIIIIIIIIIIIIIIIIIIIIIIIIIIIIII44II444II444A44AAAAAAAAAAAAA
IIIIIIIIIIIIIIIIIIIIIIIIII4III44III444II44444444A44AAAAAAAAAAAAA
IIIIIIIIIIIIIIIIIIIIIIIIII44II444II4444I44444444A44AAAAAAAAAAAAA
IIIIIIIIIIIIIIIIIIIIIIIIII444I4444I4444444444444A44AAAAAAAAAAAAA
IIIIIIIIIIIIIIIIIIIIIIIIII4444444444444444444444A44AAAAAAAAAAAAA
IIIIIIIIIIIIIIIIIIIIIIIIII4444444444444444444444A4IAAAAAAAAAAAAA
IIIIIIIIIIIIIIIIIIIIIIIIII4444444444444444444444A44AAAAAAAAAAAAA
IIIIIIIIIIIIIIIIIIIIII4III4444444444444444444444A24AAAAAAAAAAAAA
IIIIIIIIIIIIIIIIIIIIII4II44444444444444444444444A24AAAAAAAAAAAAA
IIIIIIIIIIIIIIIIIIIIII4II44444444444444444444444A24AAAAAIAAAAAAA
IIIIIIIIIIIIIIIIIIIIII4II44444444444444444444444I24AAAAAIAAAAAAA
IIIIIIIIIIIIIIIIIIIIII4II44444444444444444444444I24AAAAA4AAAAAAA
IIIIIIIIIIIIIIIIIIIIII4II44444444444444444444444I24AAAAAAAAAAAAA
IIIIIIIIIIIIIIIIIIIIII4II44444444444444444444444A24AAAAAAAAAAAAA
IIIIIIIIIIIIIIIIIIIIII4II44444444444444444444444A2AAAAAAAAAAAAAA
IIIIIIIIIIIIIIIIIIIIII4II44444444444444444444444A2AAIAAAAAAAAAAA
IIIIIIIIIIIIIIIIIIIIII4II44444444444444444444444A2AAIAAAIAAAAAAA
IIIIIIIIIIIIIIIIIIIIII4II44444444444444444444444A2AAAAAAIAAAAAAA
IIIIIIIIIIIIIIIIIIIIII4II44444444444444444444444A2AAAAAA2AAAAAAA
IIIIIIIIIIIIIIIIIIIIII4II44444444444444444444444A2AAAAAAIAAAAAAA
IIIIIIIIIIIIIIIIIIIIII4II44444444444444444444444A2AAAAAA4AAAAAAA
IIIIIIIIIIIIIIIIIIIIII4II44444444444444444444444A2AAAAAAAAAAAAAA
IIIIIIIIIIIIIIIIIIIIII4II44444444444444444444444A2AAAAAAAAAAAAIA
IIIIIIIIIIIIIIIIIIIIII4II44444444444444444444444A2AAAAAAAAAAAA4A
IIIIIIIIIIIIIIIIIIIIII4II44444444444444444444444I2AAAAAAAAAAAA4A
IIIIIIIIIIIIIIIIIIIIII4II44444444444444444444444I2AIAAAAAAAAAA4A
IIIIIIIIIIIIIIIIIIIIII4II44444444444444444444444I2AIAAAAAAIAAA4A
IIIIIIIIIIIIIIIIIIIIII4II44444444444444444444444I2AIAAAAAA4AAA4A
IIIIIIIIIIIIIIIIIIIIII4II4444444444444444444444442AIAAAAAA4AAA4A
IIIIIIIIIIIIIIIIIIIIII4II4444444444444444444444442AAAAAAAA4AAA4A
IIIIIIIIIIIIIIIIIIIIII4II4444444444444444444444442AAAAAAAAAAAA4A
IIIIIIIIIIIIIIIIIIIIII4II44444444444444444444444A2AAAAAAAAAAAA4A
IIIIIIIIIIIIIIIIIIIIII4II44444444444444444444444A2AAAAAAAAAAAAAA
IIIIIIIIIIIIIIIIIIIIII4II44444444444444444444444A2AIAAAAAAAAAAAA
IIIIIIIIIIIIIIIIIIIIII4II44444444444444444444444A2A2AAAAAAAAAAAA
IIIIIIIIIIIIIIIIIIIIII4II44444444444444444444444A2AAAAAAAAAAAAAA
IIIIIIIIIIIIIIIIIIIIII4II44444444444444444444444A2AAAAIAAAAAAAAA
IIIIIIIIIIIIIIIIIIIIII4II44444444444444444444444A2AAAAIIAAAAAAAA
IIIIIIIIIIIIIIIIIIIIII4II44444444444444444444444I2AAAAIIAAAAAAAA
IIIIIIIIIIIIIIIIIIIIII4II44444444444444444444444I2AAAAIIAAAAAIAA
IIIIIIIIIIIIIIIIIIIIII4II44444444444444444444444I2AAIAIIAAAAAIAA
IIIIIIIIIIIIIIIIIIIIII4II44444444444444444444444I2AAIAIIIAAAAIAA
IIIIIIIIIIIIIIIIIIIIII4II44444444444444444444444I2AAIAIIIAAAA2AA
IIIIIIIIIIIIIIIIIIIIII4II44444444444444444444444I2AAIA4I4AAAA2AA
IIIIIIIIIIIIIIIIIIIIII4II44444444444444444444444I2AAIA4A4AAAA2AA
IIIIIIIIIIIIIIIIIIIIII4II44444444444444444444444I2AAIA4AAAAAA2AA
IIIIIIIIIIIIIIIIIIIIII4II44444444444444444444444I2AAIA4AAAAAAAAA
IIIIIIIIIIIIIIIIIIIIII4II44444444444444444444444A2AAIA4AAAAAAAAA
IIIIIIIIIIIIIIIIIIIIII4II44444444444444444444444A2AAAA4AAAAAAAAA
IIIIIIIIIIIIIIIIIIIIII4II44444444444444444444444A2AAAAAAAAAAAAAA
IIIIIIIIIIIIIIIIIIIIII4II44444444444444444444444A2AAAAAAAAAAAAIA
IIIIIIIIIIIIIIIIIIIIII4II44444444444444444444444A2AAAAAAAAAAAA2A
IIIIIIIIIIIIIIIIIIIIII4II44444444444444444444444A2IAAAAAAAAAAA2A
IIIIIIIIIIIIIIIIIIIIII4II44444444444444444444444A2IAAAAAAAAAAAAA
IIIIIIIIIIIIIIIIIIIIII4II44444444444444444444444A24AAAAAAAAAAAAA
IIIIIIIIIIIIIIIIIIIIII4II44444444444444444444444A24AAAAAAAAAIAAA
IIIIIIIIIIIIIIIIIIIIII4II44444444444444444444444A24AAAAAAAAA2AAA
IIIIIIIIIIIIIIIIIIIIII4II44444444444444444444444A24AAAAIAAAA2AAA
IIIIIIIIIIIIIIIIIIIIII4II44444444444444444444444A24AAAAIAIAA2AAA
IIIIIIIIIIIIIIIIIIIIII4II44444444444444444444444A24AAAA2A2AA2AAA
IIIIIIIIIIIIIIIIIIIIII4II44444444444444444444444A24AAAA2A2IA2AAA
IIIIIIIIIIIIIIIIIIIIII4II44444444444444444444444A24AAAA2A2IAAAAA
IIIIIIIIIIIIIIIIIIIIII4II44444444444444444444444A24AAAA2AA2AAAAA
IIIIIIIIIIIIIIIIIIIIII4II44444444444444444444444A24AAAAAAA2AAAAA
IIIIIIIIIIIIIIIIIIIIII4II44444444444444444444444A24AAAAAAAAAAAAA
IIIIIIIIIIIIIIIIIIIIII4II44444444444444444444444A24AAAAAAAAAAIAA
IIIIIIIIIIIIIIIIIIIIII4II44444444444444444444444A24AAAAAAAAAA4AA
IIIIIIIIIIIIIIIIIIIIII4II44444444444444444444444A24AAAAAAAAAA2AA
IIIIIIIIIIIIIIIIIIIIII4II44444444444444444444444A24AAAAAAAAAAAAA
IIIIIIIIIIIIIIIIIIIIII4II44444444444444444444444A24AAAAAAAAAAIAA
IIIIIIIIIIIIIIIIIIIIII4II44444444444444444444444A24AAAAIAAAAAIAA
IIIIIIIIIIIIIIIIIIIIII4II44444444444444444444444A24AAAAIAAAAIIAA
IIIIIIIIIIIIIIIIIIIIII4II44444444444444444444444A24AAAAIAAAAI2AA
IIIIIIIIIIIIIIIIIIIIII4II44444444444444444444444A24AAAAIAAAA42AA
IIIIIIIIIIIIIIIIIIIIII4II44444444444444444444444A24AAAAIAAAA22AA
IIIIIIIIIIIIIIIIIIIIII4II44444444444444444444444A24AAAAAAAAA22AA
IIIIIIIIIIIIIIIIIIIIII4II44444444444444444444444A24AAAAAAAAA2AAA
IIIIIIIIIIIIIIIIIIIIII4II44444444444444444444444A24AAAAAAAAAAAAA
IIIIIIIIIIIIIIIIIIIIII4II44444444444444444444444A24AAAAAAAAAIAAA
IIIIIIIIIIIIIIIIIIIIII4II44444444444444444444444A24AAAAAAAAAIAIA
IIIIIIIIIIIIIIIIIIIIII4II44444444444444444444444A24AAAAAAAAA4AIA
IIIIIIIIIIIIIIIIIIIIII4II44444444444444444444444A24AAAAAAAAA4A4A
IIIIIIIIIIIIIIIIIIIIII4II44444444444444444444444A2AAAAAAAAAA4A4A
IIIIIIIIIIIIIIIIIIIIII4II44444444444444444444444A2AAAAAAAAAA2A4A
IIIIIIIIIIIIIIIIIIIIII4II44444444444444444444444A2AAAAAAAAAA2A2A
IIIIIIIIIIIIIIIIIIIIII4II44444444444444444444444A2AAAAAAAAAAAA2A
IIIIIIIIIIIIIIIIIIIIII4II44444444444444444444444A2AAAAAAAAAAAAAA
IIIIIIIIIIIIIIIIIIIIII4II44444444444444444444444A2AAAAAAAAAAAAIA
IIIIIIIIIIIIIIIIIIIIII4II44444444444444444444444A2AAAAAAAAAAAA4A
IIIIIIIIIIIIIIIIIIIIII4II44444444444444444444444A2AAAAAAAAAAAA2A
IIIIIIIIIIIIIIIIIIIIII4II44444444444444444444444A2AAAAAAAAAAAAAA
IIIIIIIIIIIIIIIIIIIIII4II44444444444444444444444I2AAAAAAAAAAAAAA
IIIIIIIIIIIIIIIIIIIIII4II44444444444444444444444A2AAAAAAAAAAAAAA
IIIIIIIIIIIIIIIIIIIIII4II44444444444444444444444A2AAIAAAAAAAAAAA
IIIIIIIIIIIIIIIIIIIIII4II44444444444444444444444A2AA4AAAAAAAAAAA
IIIIIIIIIIIIIIIIIIIIII4II44444444444444444444444A2AAAAAAAAAAAAAA
IIIIIIIIIIIIIIIIIIIIII4II44444444444444444444444A2AAAAIAAAAAAAAA
IIIIIIIIIIIIIIIIIIIIII4II44444444444444444444444A2AAAA2AAAAAAAAA
IIIIIIIIIIIIIIIIIIIIII4II44444444444444444444444A2AAAAAAAAAAAAAA
IIIIIIIIIIIIIIIIIIIIII4II44444444444444444444444A2AAAAAAAAAAAIAA
IIIIIIIIIIIIIIIIIIIIII4II44444444444444444444444A2AAAAAAAAAAAIAI
IIIIIIIIIIIIIIIIIIIIII4II44444444444444444444444A2AAAAAAAAAAA2A4
IIIIIIIIIIIIIIIIIIIIII4II44444444444444444444444A2AAAAAAAAAAA2A2
IIIIIIIIIIIIIIIIIIIIII4II44444444444444444444444A2AAAAAAAAAAAAA2
IIIIIIIIIIIIIIIIIIIIII4II44444444444444444444444A2AAAAIAAAAAAAA2
IIIIIIIIIIIIIIIIIIIIII4II44444444444444444444444A2AAAA4AAAAAAAA2
IIIIIIIIIIIIIIIIIIIIII4II44444444444444444444444A2AAAA2AAAAAAAA2
IIIIIIIIIIIIIIIIIIIIII4II44444444444444444444444A2AAAA2AAAAAAAAA
IIIIIIIIIIIIIIIIIIIIII4II44444444444444444444444A2AAAAAAAAAAAAAA
IIIIIIIIIIIIIIIIIIIIII4II44444444444444444444444A2AAAAAAAAAAAAIA
IIIIIIIIIIIIIIIIIIIIII4II44444444444444444444444A2AAAAAAAAAAAA4A
IIIIIIIIIIIIIIIIIIIIII4II44444444444444444444444A2AAAAAAAAAAAAAA
IIIIIIIIIIIIIIIIIIIIII4II44444444444444444444444I2AAAAAAAAAAAAAA
IIIIIIIIIIIIIIIIIIIIII4II44444444444444444444444A2AAAAAAAAAAAAAA
IIIIIIIIIIIIIIIIIIIIII4II44444444444444444444444A2AAAAAAAAAAAIAA
IIIIIIIIIIIIIIIIIIIIII4II44444444444444444444444A2AAAAAAAAAAIIAA
IIIIIIIIIIIIIIIIIIIIII4II44444444444444444444444A2AAAAAAAAAAI4AA
IIIIIIIIIIIIIIIIIIIIII4II44444444444444444444444A2AAAAAAAAAA44AA
IIIIIIIIIIIIIIIIIIIIII4II44444444444444444444444A2AAAAAAAAAAA2AA
IIIIIIIIIIIIIIIIIIIIII4II44444444444444444444444A2AAAAAAAAAAAAAA
IIIIIIIIIIIIIIIIIIIIII4II44444444444444444444444I2AAAAAAAAAAAAAA
IIIIIIIIIIIIIIIIIIIIII4II44444444444444444444444I2AAAAAAIAAAAAAA
IIIIIIIIIIIIIIIIIIIIII4II44444444444444444444444I2AAAAAAIAAAAIAA
IIIIIIIIIIIIIIIIIIIIII4II44444444444444444444444I2AAAAAAIAAAA2AA
IIIIIIIIIIIIIIIIIIIIII4II44444444444444444444444I2AAAAAAIAAAAAAA
IIIIIIIIIIIIIIIIIIIIII4II44444444444444444444444I2AAAAAA2AAAAAAA
IIIIIIIIIIIIIIIIIIIIII4II44444444444444444444444I2AAAAAAAAAAAAAA
IIIIIIIIIIIIIIIIIIIIII4II44444444444444444444444A2AAAAAAAAAAAAAA
IIIIIIIIIIIIIIIIIIIIII4II44444444444444444444444A2IAAAAAAAAAAAAA
IIIIIIIIIIIIIIIIIIIIII4II44444444444444444444444A22AAAAAAAAAAAAA
IIIIIIIIIIIIIIIIIIIIII4II44444444444444444444444A2AAAAAAAAAAAAAA
IIIIIIIIIIIIIIIIIIIIII4II44444444444444444444444A2AAAAAAAAAAAAAI
IIIIIIIIIIIIIIIIIIIIII4II44444444444444444444444A2AAAAAAAAAAAAA4
IIIIIIIIIIIIIIIIIIIIII4II44444444444444444444444A2AAAAAAAAAAAAA2
IIIIIIIIIIIIIIIIIIIIII4II44444444444444444444444A2AAAAAAAAAAIAA2
IIIIIIIIIIIIIIIIIIIIII4II44444444444444444444444A2AAAAAAAAAAIIA2
IIIIIIIIIIIIIIIIIIIIII4II44444444444444444444444A2AAAAAAAAAA22A2
IIIIIIIIIIIIIIIIIIIIII4II44444444444444444444444A2AAAAAAAAIA22A2
IIIIIIIIIIIIIIIIIIIIII4II44444444444444444444444A2AAAAAAAA2A22A2
IIIIIIIIIIIIIIIIIIIIII4II44444444444444444444444A2AAAAAAAAAA22A2
IIIIIIIIIIIIIIIIIIIIII4II44444444444444444444444A2AAAAAAAAAA2AA2
IIIIIIIIIIIIIIIIIIIIII4II44444444444444444444444A2AAAAAAAAAAAAA2
IIIIIIIIIIIIIIIIIIIIII4II44444444444444444444444A2AAAAAAAAAAAAAA
IIIIIIIIIIIIIIIIIIIIII4II44444444444444444444444A2AAAAAAAAAAAAAI
IIIIIIIIIIIIIIIIIIIIII4II44444444444444444444444A2AAAAAAAAAAAAA2
IIIIIIIIIIIIIIIIIIIIII4II44444444444444444444444A2AAAAAAAAAAAAAA
IIIIIIIIIIIIIIIIIIIIII4II44444444444444444444444A2AAAAAAAAAAAAIA
IIIIIIIIIIIIIIIIIIIIII4II44444444444444444444444A2AAAAAAAAAAAA2A
IIIIIIIIIIIIIIIIIIIIII4II44444444444444444444444A2AAAAAAAAAAAAAA
IIIIIIIIIIIIIIIIIIIIII4II44444444444444444444444A2AAAAIAAAAAAAAA
IIIIIIIIIIIIIIIIIIIIII4II44444444444444444444444A2AAAA2AAAAAAAAA
IIIIIIIIIIIIIIIIIIIIII4II44444444444444444444444A2AAAAAAAAAAAAAA
IIIIIIIIIIIIIIIIIIIIII4II44444444444444444444444A2AAAAAAAAAAAAAI
IIIIIIIIIIIIIIIIIIIIII4II44444444444444444444444A2AAAAAAAAAAAAA4
IIIIIIIIIIIIIIIIIIIIII4II44444444444444444444444A2AAAAAAAAAAAAA2
IIIIIIIIIIIIIIIIIIIIII4II44444444444444444444444A2AAAAAAAAAAAAAA
IIIIIIIIIIIIIIIIIIIIII4II44444444444444444444444A2AAAAAAAAAAAIAA
IIIIIIIIIIIIIIIIIIIIII4II44444444444444444444444A2AAAAAAAAAAA2AA
IIIIIIIIIIIIIIIIIIIIII4II44444444444444444444444A2AAAAAAAAAAAAAA
IIIIIIIIIIIIIIIIIIIIII4II44444444444444444444444A2AAAAAAAAAAAAIA
IIIIIIIIIIIIIIIIIIIIII4II44444444444444444444444A2AAAAAAAAAAAAII
IIIIIIIIIIIIIIIIIIIIII4II44444444444444444444444A2AAAAAAAAAAAA2I
IIIIIIIIIIIIIIIIIIIIII4II44444444444444444444444A2AAAAAAAAAAAA24
IIIIIIIIIIIIIIIIIIIIII4II44444444444444444444444A2AAAAAAAAAAAAA2
IIIIIIIIIIIIIIIIIIIIII4II44444444444444444444444A2AAAAAAAAAAAAAA
IIIIIIIIIIIIIIIIIIIIII4II44444444444444444444444A2AAAAAAAAAAAAAI
IIIIIIIIIIIIIIIIIIIIII4II44444444444444444444444A2AAAAAAAAAAAAA2
IIIIIIIIIIIIIIIIIIIIII4II44444444444444444444444A2AAAAAAAAAAAAAA
[MLOP] Prefetch Degree Mean: 6.82911
[MLOP] Prefetch Degree SD: 3.27281
[MLOP] Max Score Left Mean (%): 32.02785
[MLOP] Max Score Left SD (%): 13.55189
[MLOP] Max Score Right Mean (%): 59.97089
[MLOP] Max Score Right SD (%): 16.55166

Channel_0_RQ_row_buffer_hit 178713
Channel_0_RQ_row_buffer_miss 817359
Channel_0_WQ_row_buffer_hit 95362
Channel_0_WQ_row_buffer_miss 762482
Channel_0_WQ_full 0
Channel_0_dbus_congested 1620307

avg_congested_cycle 104

DRAM_bw_pochs 6099788
DRAM_bw_level_0 5462391
DRAM_bw_level_1 206458
DRAM_bw_level_2 0
DRAM_bw_level_3 430939
