*************************************************
   ChampSim Multicore Out-of-Order Simulator
   Last compiled: Dec 11 2024 17:59:53
*************************************************
parsing config file: /home/functionmain/桌面/Pythia/config/bingo.ini

trace_0 /home/functionmain/桌面/Pythia/traces/445.gobmk-36B.champsimtrace.xz
adding L2C_PREFETCHER: Bingo
Initialize SHIP state
warmup_instructions 100000000
simulation_instructions 500000000
champsim_seed 171
measure_ipc 0
measure_ipc_epoch 1000
measure_dram_bw 1
measure_dram_bw_epoch 256
measure_cache_acc 1
measure_cache_acc_epoch 1024
l1d_perfect 0
l2c_perfect 0
llc_perfect 0
l1d_semi_perfect 0
l2c_semi_perfect 0
llc_semi_perfect 0
semi_perfect_cache_page_buffer_size 64

num_cpus 1
cpu_freq 4000
dram_io_freq 4800
page_size 4096
block_size 64
max_read_per_cycle 8
max_fill_per_cycle 1
dram_channels 1
log2_dram_channels 0
dram_ranks 1
dram_banks 8
dram_rows 65536
dram_columns 128
dram_row_size 8
dram_size 4096
dram_pages 1048576

fetch_width 6
decode_width 6
exec_width 4
lq_width 2
sq_width 2
retire_width 4
scheduler_size 128
branch_mispredict_penalty 20
rob_size 256
lq_size 72
sq_size 56
num_instr_destinations_sparc 4
num_instr_destinations 2
num_instr_sources 4

itlb_set 16
itlb_way 8
itlb_rq_size 16
itlb_wq_size 16
itlb_pq_size 0
itlb_mshr_size 8
itlb_latency 1

dtlb_set 16
dtlb_way 4
dtlb_rq_size 16
dtlb_wq_size 16
dtlb_pq_size 0
dtlb_mshr_size 8
dtlb_latency 1

stlb_set 128
stlb_way 12
stlb_rq_size 32
stlb_wq_size 32
stlb_pq_size 0
stlb_mshr_size 16
stlb_latency 8

l1i_size 32
l1i_set 64
l1i_way 8
l1i_rq_size 64
l1i_wq_size 64
l1i_pq_size 8
l1i_mshr_size 8
l1i_latency 1

l1d_size 32
l1d_set 64
l1d_way 8
l1d_rq_size 64
l1d_wq_size 64
l1d_pq_size 8
l1d_mshr_size 16
l1d_latency 4

l2c_size 256
l2c_set 512
l2c_way 8
l2c_rq_size 32
l2c_wq_size 32
l2c_pq_size 32
l2c_mshr_size 32
l2c_latency 10

llc_size 2048
llc_set 2048
llc_way 16
llc_rq_size 32
llc_wq_size 32
llc_pq_size 32
llc_mshr_size 64
llc_latency 20

dram_channel_width 8
dram_wq_size 64
dram_rq_size 64
tRP 15
tRCD 15
tCAS 12.5
dram_dbus_turn_around_time 30
dram_write_high_wm 56
dram_write_low_wm 48
min_dram_writes_per_switch 16
dram_mtps 4800
dram_dbus_return_time 6

bingo_region_size 2048
bingo_pattern_len 32
bingo_pc_width 16
bingo_min_addr_width 5
bingo_max_addr_width 16
bingo_ft_size 64
bingo_at_size 128
bingo_pht_size 4096
bingo_pht_ways 16
bingo_pf_streamer_size 128
bingo_debug_level 0
bingo_l1d_thresh 1.01
bingo_l2c_thresh 0.8
bingo_llc_thresh 0.05
bingo_pc_address_fill_level L2


Heartbeat CPU  0 instructions:    1000000 cycles:    1143434 heartbeat IPC: 0.87456 cumulative IPC: 0.87456 (Simulation time: 0 hr 0 min 1 sec) 
Heartbeat CPU  0 instructions:    2000000 cycles:    2306974 heartbeat IPC: 0.85945 cumulative IPC: 0.86694 (Simulation time: 0 hr 0 min 2 sec) 
Heartbeat CPU  0 instructions:    3000000 cycles:    3459370 heartbeat IPC: 0.86776 cumulative IPC: 0.86721 (Simulation time: 0 hr 0 min 3 sec) 
Heartbeat CPU  0 instructions:    4000000 cycles:    4510733 heartbeat IPC: 0.95115 cumulative IPC: 0.88677 (Simulation time: 0 hr 0 min 4 sec) 
Heartbeat CPU  0 instructions:    5000001 cycles:    5594467 heartbeat IPC: 0.92274 cumulative IPC: 0.89374 (Simulation time: 0 hr 0 min 6 sec) 
Heartbeat CPU  0 instructions:    6000000 cycles:    6675423 heartbeat IPC: 0.92511 cumulative IPC: 0.89882 (Simulation time: 0 hr 0 min 7 sec) 
Heartbeat CPU  0 instructions:    7000002 cycles:    7776649 heartbeat IPC: 0.90808 cumulative IPC: 0.90013 (Simulation time: 0 hr 0 min 8 sec) 
Heartbeat CPU  0 instructions:    8000000 cycles:    8891553 heartbeat IPC: 0.89694 cumulative IPC: 0.89973 (Simulation time: 0 hr 0 min 9 sec) 
Heartbeat CPU  0 instructions:    9000002 cycles:   10003258 heartbeat IPC: 0.89952 cumulative IPC: 0.89971 (Simulation time: 0 hr 0 min 11 sec) 
Heartbeat CPU  0 instructions:   10000000 cycles:   10942605 heartbeat IPC: 1.06457 cumulative IPC: 0.91386 (Simulation time: 0 hr 0 min 12 sec) 
Heartbeat CPU  0 instructions:   11000002 cycles:   11926506 heartbeat IPC: 1.01636 cumulative IPC: 0.92232 (Simulation time: 0 hr 0 min 13 sec) 
Heartbeat CPU  0 instructions:   12000000 cycles:   13064800 heartbeat IPC: 0.87851 cumulative IPC: 0.91850 (Simulation time: 0 hr 0 min 14 sec) 
Heartbeat CPU  0 instructions:   13000001 cycles:   14085545 heartbeat IPC: 0.97968 cumulative IPC: 0.92293 (Simulation time: 0 hr 0 min 15 sec) 
Heartbeat CPU  0 instructions:   14000001 cycles:   15202448 heartbeat IPC: 0.89533 cumulative IPC: 0.92090 (Simulation time: 0 hr 0 min 16 sec) 
Heartbeat CPU  0 instructions:   15000003 cycles:   16231971 heartbeat IPC: 0.97133 cumulative IPC: 0.92410 (Simulation time: 0 hr 0 min 18 sec) 
Heartbeat CPU  0 instructions:   16000000 cycles:   17274232 heartbeat IPC: 0.95945 cumulative IPC: 0.92624 (Simulation time: 0 hr 0 min 19 sec) 
Heartbeat CPU  0 instructions:   17000001 cycles:   18299095 heartbeat IPC: 0.97574 cumulative IPC: 0.92901 (Simulation time: 0 hr 0 min 20 sec) 
Heartbeat CPU  0 instructions:   18000001 cycles:   19403052 heartbeat IPC: 0.90583 cumulative IPC: 0.92769 (Simulation time: 0 hr 0 min 21 sec) 
Heartbeat CPU  0 instructions:   19000003 cycles:   20431391 heartbeat IPC: 0.97244 cumulative IPC: 0.92994 (Simulation time: 0 hr 0 min 23 sec) 
Heartbeat CPU  0 instructions:   20000000 cycles:   21405213 heartbeat IPC: 1.02688 cumulative IPC: 0.93435 (Simulation time: 0 hr 0 min 24 sec) 
Heartbeat CPU  0 instructions:   21000002 cycles:   22409256 heartbeat IPC: 0.99598 cumulative IPC: 0.93711 (Simulation time: 0 hr 0 min 26 sec) 
Heartbeat CPU  0 instructions:   22000002 cycles:   23400752 heartbeat IPC: 1.00858 cumulative IPC: 0.94014 (Simulation time: 0 hr 0 min 27 sec) 
Heartbeat CPU  0 instructions:   23000000 cycles:   24440000 heartbeat IPC: 0.96223 cumulative IPC: 0.94108 (Simulation time: 0 hr 0 min 28 sec) 
Heartbeat CPU  0 instructions:   24000000 cycles:   25395787 heartbeat IPC: 1.04626 cumulative IPC: 0.94504 (Simulation time: 0 hr 0 min 29 sec) 
Heartbeat CPU  0 instructions:   25000000 cycles:   26453751 heartbeat IPC: 0.94521 cumulative IPC: 0.94505 (Simulation time: 0 hr 0 min 30 sec) 
Heartbeat CPU  0 instructions:   26000001 cycles:   27516061 heartbeat IPC: 0.94135 cumulative IPC: 0.94490 (Simulation time: 0 hr 0 min 32 sec) 
Heartbeat CPU  0 instructions:   27000001 cycles:   28503388 heartbeat IPC: 1.01284 cumulative IPC: 0.94726 (Simulation time: 0 hr 0 min 33 sec) 
Heartbeat CPU  0 instructions:   28000000 cycles:   29565292 heartbeat IPC: 0.94170 cumulative IPC: 0.94706 (Simulation time: 0 hr 0 min 34 sec) 
Heartbeat CPU  0 instructions:   29000002 cycles:   30602028 heartbeat IPC: 0.96457 cumulative IPC: 0.94765 (Simulation time: 0 hr 0 min 35 sec) 
Heartbeat CPU  0 instructions:   30000001 cycles:   31599313 heartbeat IPC: 1.00272 cumulative IPC: 0.94939 (Simulation time: 0 hr 0 min 37 sec) 
Heartbeat CPU  0 instructions:   31000002 cycles:   32708802 heartbeat IPC: 0.90132 cumulative IPC: 0.94776 (Simulation time: 0 hr 0 min 38 sec) 
Heartbeat CPU  0 instructions:   32000000 cycles:   33757673 heartbeat IPC: 0.95340 cumulative IPC: 0.94793 (Simulation time: 0 hr 0 min 39 sec) 
Heartbeat CPU  0 instructions:   33000000 cycles:   34824505 heartbeat IPC: 0.93735 cumulative IPC: 0.94761 (Simulation time: 0 hr 0 min 41 sec) 
Heartbeat CPU  0 instructions:   34000000 cycles:   35870703 heartbeat IPC: 0.95584 cumulative IPC: 0.94785 (Simulation time: 0 hr 0 min 42 sec) 
Heartbeat CPU  0 instructions:   35000003 cycles:   36866516 heartbeat IPC: 1.00421 cumulative IPC: 0.94937 (Simulation time: 0 hr 0 min 43 sec) 
Heartbeat CPU  0 instructions:   36000000 cycles:   37962466 heartbeat IPC: 0.91245 cumulative IPC: 0.94831 (Simulation time: 0 hr 0 min 44 sec) 
Heartbeat CPU  0 instructions:   37000003 cycles:   39023413 heartbeat IPC: 0.94256 cumulative IPC: 0.94815 (Simulation time: 0 hr 0 min 45 sec) 
Heartbeat CPU  0 instructions:   38000002 cycles:   40046137 heartbeat IPC: 0.97778 cumulative IPC: 0.94891 (Simulation time: 0 hr 0 min 47 sec) 
Heartbeat CPU  0 instructions:   39000003 cycles:   41098762 heartbeat IPC: 0.95001 cumulative IPC: 0.94893 (Simulation time: 0 hr 0 min 48 sec) 
Heartbeat CPU  0 instructions:   40000000 cycles:   42174342 heartbeat IPC: 0.92973 cumulative IPC: 0.94844 (Simulation time: 0 hr 0 min 49 sec) 
Heartbeat CPU  0 instructions:   41000003 cycles:   43296366 heartbeat IPC: 0.89125 cumulative IPC: 0.94696 (Simulation time: 0 hr 0 min 50 sec) 
Heartbeat CPU  0 instructions:   42000001 cycles:   44325955 heartbeat IPC: 0.97126 cumulative IPC: 0.94753 (Simulation time: 0 hr 0 min 51 sec) 
Heartbeat CPU  0 instructions:   43000002 cycles:   45345455 heartbeat IPC: 0.98087 cumulative IPC: 0.94828 (Simulation time: 0 hr 0 min 53 sec) 
Heartbeat CPU  0 instructions:   44000000 cycles:   46428844 heartbeat IPC: 0.92303 cumulative IPC: 0.94769 (Simulation time: 0 hr 0 min 54 sec) 
Heartbeat CPU  0 instructions:   45000001 cycles:   47543549 heartbeat IPC: 0.89710 cumulative IPC: 0.94650 (Simulation time: 0 hr 0 min 55 sec) 
Heartbeat CPU  0 instructions:   46000002 cycles:   48600772 heartbeat IPC: 0.94588 cumulative IPC: 0.94649 (Simulation time: 0 hr 0 min 56 sec) 
Heartbeat CPU  0 instructions:   47000003 cycles:   49567841 heartbeat IPC: 1.03405 cumulative IPC: 0.94820 (Simulation time: 0 hr 0 min 58 sec) 
Heartbeat CPU  0 instructions:   48000000 cycles:   50569483 heartbeat IPC: 0.99836 cumulative IPC: 0.94919 (Simulation time: 0 hr 0 min 59 sec) 
Heartbeat CPU  0 instructions:   49000000 cycles:   51625986 heartbeat IPC: 0.94652 cumulative IPC: 0.94913 (Simulation time: 0 hr 1 min 0 sec) 
Heartbeat CPU  0 instructions:   50000001 cycles:   52671765 heartbeat IPC: 0.95623 cumulative IPC: 0.94928 (Simulation time: 0 hr 1 min 1 sec) 
Heartbeat CPU  0 instructions:   51000001 cycles:   53720652 heartbeat IPC: 0.95339 cumulative IPC: 0.94936 (Simulation time: 0 hr 1 min 3 sec) 
Heartbeat CPU  0 instructions:   52000000 cycles:   54788263 heartbeat IPC: 0.93667 cumulative IPC: 0.94911 (Simulation time: 0 hr 1 min 4 sec) 
Heartbeat CPU  0 instructions:   53000000 cycles:   55895428 heartbeat IPC: 0.90321 cumulative IPC: 0.94820 (Simulation time: 0 hr 1 min 5 sec) 
Heartbeat CPU  0 instructions:   54000003 cycles:   57012754 heartbeat IPC: 0.89500 cumulative IPC: 0.94716 (Simulation time: 0 hr 1 min 7 sec) 
Heartbeat CPU  0 instructions:   55000003 cycles:   58100665 heartbeat IPC: 0.91919 cumulative IPC: 0.94663 (Simulation time: 0 hr 1 min 8 sec) 
Heartbeat CPU  0 instructions:   56000000 cycles:   59161291 heartbeat IPC: 0.94284 cumulative IPC: 0.94656 (Simulation time: 0 hr 1 min 9 sec) 
Heartbeat CPU  0 instructions:   57000000 cycles:   60267436 heartbeat IPC: 0.90404 cumulative IPC: 0.94578 (Simulation time: 0 hr 1 min 11 sec) 
Heartbeat CPU  0 instructions:   58000000 cycles:   61311538 heartbeat IPC: 0.95776 cumulative IPC: 0.94599 (Simulation time: 0 hr 1 min 12 sec) 
Heartbeat CPU  0 instructions:   59000003 cycles:   62422089 heartbeat IPC: 0.90046 cumulative IPC: 0.94518 (Simulation time: 0 hr 1 min 13 sec) 
Heartbeat CPU  0 instructions:   60000000 cycles:   63490915 heartbeat IPC: 0.93560 cumulative IPC: 0.94502 (Simulation time: 0 hr 1 min 15 sec) 
Heartbeat CPU  0 instructions:   61000001 cycles:   64631453 heartbeat IPC: 0.87678 cumulative IPC: 0.94381 (Simulation time: 0 hr 1 min 16 sec) 
Heartbeat CPU  0 instructions:   62000001 cycles:   65681456 heartbeat IPC: 0.95238 cumulative IPC: 0.94395 (Simulation time: 0 hr 1 min 17 sec) 
Heartbeat CPU  0 instructions:   63000000 cycles:   66732603 heartbeat IPC: 0.95134 cumulative IPC: 0.94407 (Simulation time: 0 hr 1 min 18 sec) 
Heartbeat CPU  0 instructions:   64000000 cycles:   67805446 heartbeat IPC: 0.93210 cumulative IPC: 0.94388 (Simulation time: 0 hr 1 min 20 sec) 
Heartbeat CPU  0 instructions:   65000000 cycles:   68886894 heartbeat IPC: 0.92469 cumulative IPC: 0.94358 (Simulation time: 0 hr 1 min 21 sec) 
Heartbeat CPU  0 instructions:   66000000 cycles:   69977913 heartbeat IPC: 0.91657 cumulative IPC: 0.94315 (Simulation time: 0 hr 1 min 22 sec) 
Heartbeat CPU  0 instructions:   67000000 cycles:   71009197 heartbeat IPC: 0.96966 cumulative IPC: 0.94354 (Simulation time: 0 hr 1 min 23 sec) 
Heartbeat CPU  0 instructions:   68000000 cycles:   72064871 heartbeat IPC: 0.94726 cumulative IPC: 0.94359 (Simulation time: 0 hr 1 min 25 sec) 
Heartbeat CPU  0 instructions:   69000003 cycles:   73152904 heartbeat IPC: 0.91909 cumulative IPC: 0.94323 (Simulation time: 0 hr 1 min 26 sec) 
Heartbeat CPU  0 instructions:   70000001 cycles:   74334273 heartbeat IPC: 0.84647 cumulative IPC: 0.94169 (Simulation time: 0 hr 1 min 27 sec) 
Heartbeat CPU  0 instructions:   71000001 cycles:   75352782 heartbeat IPC: 0.98183 cumulative IPC: 0.94223 (Simulation time: 0 hr 1 min 28 sec) 
Heartbeat CPU  0 instructions:   72000000 cycles:   76424646 heartbeat IPC: 0.93295 cumulative IPC: 0.94210 (Simulation time: 0 hr 1 min 29 sec) 
Heartbeat CPU  0 instructions:   73000002 cycles:   77552458 heartbeat IPC: 0.88667 cumulative IPC: 0.94130 (Simulation time: 0 hr 1 min 31 sec) 
Heartbeat CPU  0 instructions:   74000000 cycles:   78629306 heartbeat IPC: 0.92863 cumulative IPC: 0.94112 (Simulation time: 0 hr 1 min 32 sec) 
Heartbeat CPU  0 instructions:   75000001 cycles:   79707070 heartbeat IPC: 0.92785 cumulative IPC: 0.94095 (Simulation time: 0 hr 1 min 33 sec) 
Heartbeat CPU  0 instructions:   76000000 cycles:   80683821 heartbeat IPC: 1.02380 cumulative IPC: 0.94195 (Simulation time: 0 hr 1 min 34 sec) 
Heartbeat CPU  0 instructions:   77000001 cycles:   81772009 heartbeat IPC: 0.91896 cumulative IPC: 0.94164 (Simulation time: 0 hr 1 min 35 sec) 
Heartbeat CPU  0 instructions:   78000000 cycles:   82822270 heartbeat IPC: 0.95214 cumulative IPC: 0.94178 (Simulation time: 0 hr 1 min 37 sec) 
Heartbeat CPU  0 instructions:   79000000 cycles:   83935310 heartbeat IPC: 0.89844 cumulative IPC: 0.94120 (Simulation time: 0 hr 1 min 38 sec) 
Heartbeat CPU  0 instructions:   80000000 cycles:   84937552 heartbeat IPC: 0.99776 cumulative IPC: 0.94187 (Simulation time: 0 hr 1 min 39 sec) 
Heartbeat CPU  0 instructions:   81000003 cycles:   85954201 heartbeat IPC: 0.98363 cumulative IPC: 0.94236 (Simulation time: 0 hr 1 min 40 sec) 
Heartbeat CPU  0 instructions:   82000002 cycles:   87049872 heartbeat IPC: 0.91268 cumulative IPC: 0.94199 (Simulation time: 0 hr 1 min 41 sec) 
Heartbeat CPU  0 instructions:   83000001 cycles:   88143490 heartbeat IPC: 0.91440 cumulative IPC: 0.94165 (Simulation time: 0 hr 1 min 42 sec) 
Heartbeat CPU  0 instructions:   84000000 cycles:   89097013 heartbeat IPC: 1.04874 cumulative IPC: 0.94279 (Simulation time: 0 hr 1 min 44 sec) 
Heartbeat CPU  0 instructions:   85000001 cycles:   90237175 heartbeat IPC: 0.87707 cumulative IPC: 0.94196 (Simulation time: 0 hr 1 min 45 sec) 
Heartbeat CPU  0 instructions:   86000000 cycles:   91399995 heartbeat IPC: 0.85998 cumulative IPC: 0.94092 (Simulation time: 0 hr 1 min 46 sec) 
Heartbeat CPU  0 instructions:   87000000 cycles:   92497788 heartbeat IPC: 0.91092 cumulative IPC: 0.94056 (Simulation time: 0 hr 1 min 47 sec) 
Heartbeat CPU  0 instructions:   88000000 cycles:   93591956 heartbeat IPC: 0.91394 cumulative IPC: 0.94025 (Simulation time: 0 hr 1 min 48 sec) 
Heartbeat CPU  0 instructions:   89000001 cycles:   94734313 heartbeat IPC: 0.87538 cumulative IPC: 0.93947 (Simulation time: 0 hr 1 min 50 sec) 
Heartbeat CPU  0 instructions:   90000000 cycles:   95868771 heartbeat IPC: 0.88148 cumulative IPC: 0.93878 (Simulation time: 0 hr 1 min 51 sec) 
Heartbeat CPU  0 instructions:   91000000 cycles:   97034050 heartbeat IPC: 0.85816 cumulative IPC: 0.93782 (Simulation time: 0 hr 1 min 52 sec) 
Heartbeat CPU  0 instructions:   92000000 cycles:   98069314 heartbeat IPC: 0.96594 cumulative IPC: 0.93811 (Simulation time: 0 hr 1 min 53 sec) 
Heartbeat CPU  0 instructions:   93000003 cycles:   99033362 heartbeat IPC: 1.03730 cumulative IPC: 0.93908 (Simulation time: 0 hr 1 min 54 sec) 
Heartbeat CPU  0 instructions:   94000003 cycles:  100162296 heartbeat IPC: 0.88579 cumulative IPC: 0.93848 (Simulation time: 0 hr 1 min 56 sec) 
Heartbeat CPU  0 instructions:   95000000 cycles:  101215316 heartbeat IPC: 0.94965 cumulative IPC: 0.93859 (Simulation time: 0 hr 1 min 57 sec) 
Heartbeat CPU  0 instructions:   96000000 cycles:  102305371 heartbeat IPC: 0.91738 cumulative IPC: 0.93837 (Simulation time: 0 hr 1 min 58 sec) 
Heartbeat CPU  0 instructions:   97000000 cycles:  103422889 heartbeat IPC: 0.89484 cumulative IPC: 0.93790 (Simulation time: 0 hr 1 min 59 sec) 
Heartbeat CPU  0 instructions:   98000001 cycles:  104415234 heartbeat IPC: 1.00772 cumulative IPC: 0.93856 (Simulation time: 0 hr 2 min 0 sec) 
Heartbeat CPU  0 instructions:   99000000 cycles:  105443373 heartbeat IPC: 0.97263 cumulative IPC: 0.93889 (Simulation time: 0 hr 2 min 1 sec) 
Heartbeat CPU  0 instructions:  100000000 cycles:  106500391 heartbeat IPC: 0.94606 cumulative IPC: 0.93896 (Simulation time: 0 hr 2 min 3 sec) 

Warmup complete CPU  0 instructions:  100000001 cycles:  106500393 (Simulation time: 0 hr 2 min 3 sec) 

Heartbeat CPU  0 instructions:  101000000 cycles:  109274899 heartbeat IPC: 0.36042 cumulative IPC: 0.36042 (Simulation time: 0 hr 2 min 5 sec) 
Heartbeat CPU  0 instructions:  102000001 cycles:  111933175 heartbeat IPC: 0.37618 cumulative IPC: 0.36814 (Simulation time: 0 hr 2 min 6 sec) 
Heartbeat CPU  0 instructions:  103000003 cycles:  114533353 heartbeat IPC: 0.38459 cumulative IPC: 0.37346 (Simulation time: 0 hr 2 min 8 sec) 
Heartbeat CPU  0 instructions:  104000000 cycles:  117053240 heartbeat IPC: 0.39684 cumulative IPC: 0.37904 (Simulation time: 0 hr 2 min 10 sec) 
Heartbeat CPU  0 instructions:  105000000 cycles:  119835159 heartbeat IPC: 0.35946 cumulative IPC: 0.37496 (Simulation time: 0 hr 2 min 12 sec) 
Heartbeat CPU  0 instructions:  106000000 cycles:  122521828 heartbeat IPC: 0.37221 cumulative IPC: 0.37450 (Simulation time: 0 hr 2 min 14 sec) 
Heartbeat CPU  0 instructions:  107000002 cycles:  125111699 heartbeat IPC: 0.38612 cumulative IPC: 0.37612 (Simulation time: 0 hr 2 min 16 sec) 
Heartbeat CPU  0 instructions:  108000000 cycles:  127774293 heartbeat IPC: 0.37557 cumulative IPC: 0.37605 (Simulation time: 0 hr 2 min 17 sec) 
Heartbeat CPU  0 instructions:  109000002 cycles:  130420733 heartbeat IPC: 0.37787 cumulative IPC: 0.37625 (Simulation time: 0 hr 2 min 19 sec) 
Heartbeat CPU  0 instructions:  110000002 cycles:  133062204 heartbeat IPC: 0.37858 cumulative IPC: 0.37648 (Simulation time: 0 hr 2 min 21 sec) 
Heartbeat CPU  0 instructions:  111000000 cycles:  135538124 heartbeat IPC: 0.40389 cumulative IPC: 0.37882 (Simulation time: 0 hr 2 min 23 sec) 
Heartbeat CPU  0 instructions:  112000000 cycles:  138280981 heartbeat IPC: 0.36458 cumulative IPC: 0.37759 (Simulation time: 0 hr 2 min 25 sec) 
Heartbeat CPU  0 instructions:  113000000 cycles:  140882258 heartbeat IPC: 0.38443 cumulative IPC: 0.37811 (Simulation time: 0 hr 2 min 27 sec) 
Heartbeat CPU  0 instructions:  114000000 cycles:  143698520 heartbeat IPC: 0.35508 cumulative IPC: 0.37636 (Simulation time: 0 hr 2 min 29 sec) 
Heartbeat CPU  0 instructions:  115000003 cycles:  146422966 heartbeat IPC: 0.36705 cumulative IPC: 0.37573 (Simulation time: 0 hr 2 min 31 sec) 
Heartbeat CPU  0 instructions:  116000000 cycles:  149105089 heartbeat IPC: 0.37284 cumulative IPC: 0.37555 (Simulation time: 0 hr 2 min 33 sec) 
Heartbeat CPU  0 instructions:  117000001 cycles:  151744363 heartbeat IPC: 0.37889 cumulative IPC: 0.37574 (Simulation time: 0 hr 2 min 34 sec) 
Heartbeat CPU  0 instructions:  118000000 cycles:  154361747 heartbeat IPC: 0.38206 cumulative IPC: 0.37609 (Simulation time: 0 hr 2 min 36 sec) 
Heartbeat CPU  0 instructions:  119000001 cycles:  157156301 heartbeat IPC: 0.35784 cumulative IPC: 0.37508 (Simulation time: 0 hr 2 min 38 sec) 
Heartbeat CPU  0 instructions:  120000000 cycles:  159810467 heartbeat IPC: 0.37677 cumulative IPC: 0.37516 (Simulation time: 0 hr 2 min 40 sec) 
Heartbeat CPU  0 instructions:  121000000 cycles:  162557423 heartbeat IPC: 0.36404 cumulative IPC: 0.37462 (Simulation time: 0 hr 2 min 42 sec) 
Heartbeat CPU  0 instructions:  122000001 cycles:  165241448 heartbeat IPC: 0.37258 cumulative IPC: 0.37453 (Simulation time: 0 hr 2 min 44 sec) 
Heartbeat CPU  0 instructions:  123000000 cycles:  167854767 heartbeat IPC: 0.38265 cumulative IPC: 0.37487 (Simulation time: 0 hr 2 min 46 sec) 
Heartbeat CPU  0 instructions:  124000000 cycles:  170551836 heartbeat IPC: 0.37077 cumulative IPC: 0.37470 (Simulation time: 0 hr 2 min 48 sec) 
Heartbeat CPU  0 instructions:  125000001 cycles:  173316673 heartbeat IPC: 0.36169 cumulative IPC: 0.37416 (Simulation time: 0 hr 2 min 50 sec) 
Heartbeat CPU  0 instructions:  126000000 cycles:  176056954 heartbeat IPC: 0.36493 cumulative IPC: 0.37380 (Simulation time: 0 hr 2 min 52 sec) 
Heartbeat CPU  0 instructions:  127000000 cycles:  178569185 heartbeat IPC: 0.39805 cumulative IPC: 0.37464 (Simulation time: 0 hr 2 min 53 sec) 
Heartbeat CPU  0 instructions:  128000000 cycles:  181265982 heartbeat IPC: 0.37081 cumulative IPC: 0.37450 (Simulation time: 0 hr 2 min 55 sec) 
Heartbeat CPU  0 instructions:  129000001 cycles:  184034833 heartbeat IPC: 0.36116 cumulative IPC: 0.37403 (Simulation time: 0 hr 2 min 57 sec) 
Heartbeat CPU  0 instructions:  130000000 cycles:  186732000 heartbeat IPC: 0.37076 cumulative IPC: 0.37392 (Simulation time: 0 hr 2 min 59 sec) 
Heartbeat CPU  0 instructions:  131000001 cycles:  189320630 heartbeat IPC: 0.38631 cumulative IPC: 0.37430 (Simulation time: 0 hr 3 min 1 sec) 
Heartbeat CPU  0 instructions:  132000000 cycles:  191932698 heartbeat IPC: 0.38284 cumulative IPC: 0.37457 (Simulation time: 0 hr 3 min 3 sec) 
Heartbeat CPU  0 instructions:  133000000 cycles:  194584838 heartbeat IPC: 0.37705 cumulative IPC: 0.37464 (Simulation time: 0 hr 3 min 5 sec) 
Heartbeat CPU  0 instructions:  134000001 cycles:  197285258 heartbeat IPC: 0.37031 cumulative IPC: 0.37451 (Simulation time: 0 hr 3 min 7 sec) 
Heartbeat CPU  0 instructions:  135000002 cycles:  200024736 heartbeat IPC: 0.36503 cumulative IPC: 0.37423 (Simulation time: 0 hr 3 min 9 sec) 
Heartbeat CPU  0 instructions:  136000000 cycles:  202506521 heartbeat IPC: 0.40293 cumulative IPC: 0.37498 (Simulation time: 0 hr 3 min 10 sec) 
Heartbeat CPU  0 instructions:  137000002 cycles:  205174667 heartbeat IPC: 0.37479 cumulative IPC: 0.37497 (Simulation time: 0 hr 3 min 12 sec) 
Heartbeat CPU  0 instructions:  138000000 cycles:  207862974 heartbeat IPC: 0.37198 cumulative IPC: 0.37489 (Simulation time: 0 hr 3 min 14 sec) 
Heartbeat CPU  0 instructions:  139000000 cycles:  210509203 heartbeat IPC: 0.37790 cumulative IPC: 0.37497 (Simulation time: 0 hr 3 min 16 sec) 
Heartbeat CPU  0 instructions:  140000000 cycles:  213261656 heartbeat IPC: 0.36331 cumulative IPC: 0.37467 (Simulation time: 0 hr 3 min 18 sec) 
Heartbeat CPU  0 instructions:  141000000 cycles:  215597932 heartbeat IPC: 0.42803 cumulative IPC: 0.37581 (Simulation time: 0 hr 3 min 20 sec) 
Heartbeat CPU  0 instructions:  142000000 cycles:  217973581 heartbeat IPC: 0.42094 cumulative IPC: 0.37677 (Simulation time: 0 hr 3 min 21 sec) 
Heartbeat CPU  0 instructions:  143000000 cycles:  220806969 heartbeat IPC: 0.35293 cumulative IPC: 0.37618 (Simulation time: 0 hr 3 min 23 sec) 
Heartbeat CPU  0 instructions:  144000000 cycles:  223597827 heartbeat IPC: 0.35831 cumulative IPC: 0.37576 (Simulation time: 0 hr 3 min 25 sec) 
Heartbeat CPU  0 instructions:  145000003 cycles:  226291091 heartbeat IPC: 0.37130 cumulative IPC: 0.37566 (Simulation time: 0 hr 3 min 27 sec) 
Heartbeat CPU  0 instructions:  146000000 cycles:  229033321 heartbeat IPC: 0.36467 cumulative IPC: 0.37541 (Simulation time: 0 hr 3 min 29 sec) 
Heartbeat CPU  0 instructions:  147000000 cycles:  231722050 heartbeat IPC: 0.37192 cumulative IPC: 0.37533 (Simulation time: 0 hr 3 min 31 sec) 
Heartbeat CPU  0 instructions:  148000000 cycles:  234447538 heartbeat IPC: 0.36691 cumulative IPC: 0.37515 (Simulation time: 0 hr 3 min 33 sec) 
Heartbeat CPU  0 instructions:  149000000 cycles:  236749475 heartbeat IPC: 0.43442 cumulative IPC: 0.37620 (Simulation time: 0 hr 3 min 34 sec) 
Heartbeat CPU  0 instructions:  150000000 cycles:  238913995 heartbeat IPC: 0.46200 cumulative IPC: 0.37760 (Simulation time: 0 hr 3 min 36 sec) 
Heartbeat CPU  0 instructions:  151000003 cycles:  241403471 heartbeat IPC: 0.40169 cumulative IPC: 0.37805 (Simulation time: 0 hr 3 min 38 sec) 
Heartbeat CPU  0 instructions:  152000000 cycles:  244234605 heartbeat IPC: 0.35321 cumulative IPC: 0.37754 (Simulation time: 0 hr 3 min 40 sec) 
Heartbeat CPU  0 instructions:  153000000 cycles:  246961431 heartbeat IPC: 0.36673 cumulative IPC: 0.37733 (Simulation time: 0 hr 3 min 42 sec) 
Heartbeat CPU  0 instructions:  154000000 cycles:  249669635 heartbeat IPC: 0.36925 cumulative IPC: 0.37718 (Simulation time: 0 hr 3 min 43 sec) 
Heartbeat CPU  0 instructions:  155000002 cycles:  252371698 heartbeat IPC: 0.37009 cumulative IPC: 0.37704 (Simulation time: 0 hr 3 min 45 sec) 
Heartbeat CPU  0 instructions:  156000000 cycles:  255095835 heartbeat IPC: 0.36709 cumulative IPC: 0.37686 (Simulation time: 0 hr 3 min 47 sec) 
Heartbeat CPU  0 instructions:  157000000 cycles:  257825357 heartbeat IPC: 0.36636 cumulative IPC: 0.37667 (Simulation time: 0 hr 3 min 49 sec) 
Heartbeat CPU  0 instructions:  158000002 cycles:  259799312 heartbeat IPC: 0.50660 cumulative IPC: 0.37835 (Simulation time: 0 hr 3 min 51 sec) 
Heartbeat CPU  0 instructions:  159000001 cycles:  262098377 heartbeat IPC: 0.43496 cumulative IPC: 0.37918 (Simulation time: 0 hr 3 min 52 sec) 
Heartbeat CPU  0 instructions:  160000000 cycles:  264809748 heartbeat IPC: 0.36882 cumulative IPC: 0.37900 (Simulation time: 0 hr 3 min 54 sec) 
Heartbeat CPU  0 instructions:  161000002 cycles:  267474978 heartbeat IPC: 0.37520 cumulative IPC: 0.37894 (Simulation time: 0 hr 3 min 56 sec) 
Heartbeat CPU  0 instructions:  162000000 cycles:  270335206 heartbeat IPC: 0.34962 cumulative IPC: 0.37843 (Simulation time: 0 hr 3 min 58 sec) 
Heartbeat CPU  0 instructions:  163000001 cycles:  273020819 heartbeat IPC: 0.37235 cumulative IPC: 0.37833 (Simulation time: 0 hr 4 min 0 sec) 
Heartbeat CPU  0 instructions:  164000000 cycles:  275718875 heartbeat IPC: 0.37064 cumulative IPC: 0.37821 (Simulation time: 0 hr 4 min 2 sec) 
Heartbeat CPU  0 instructions:  165000001 cycles:  278421471 heartbeat IPC: 0.37001 cumulative IPC: 0.37808 (Simulation time: 0 hr 4 min 4 sec) 
Heartbeat CPU  0 instructions:  166000001 cycles:  281146498 heartbeat IPC: 0.36697 cumulative IPC: 0.37791 (Simulation time: 0 hr 4 min 5 sec) 
Heartbeat CPU  0 instructions:  167000003 cycles:  283928394 heartbeat IPC: 0.35947 cumulative IPC: 0.37762 (Simulation time: 0 hr 4 min 7 sec) 
Heartbeat CPU  0 instructions:  168000000 cycles:  286658087 heartbeat IPC: 0.36634 cumulative IPC: 0.37745 (Simulation time: 0 hr 4 min 9 sec) 
Heartbeat CPU  0 instructions:  169000003 cycles:  289378177 heartbeat IPC: 0.36764 cumulative IPC: 0.37730 (Simulation time: 0 hr 4 min 11 sec) 
Heartbeat CPU  0 instructions:  170000001 cycles:  292092824 heartbeat IPC: 0.36837 cumulative IPC: 0.37717 (Simulation time: 0 hr 4 min 13 sec) 
Heartbeat CPU  0 instructions:  171000001 cycles:  294162548 heartbeat IPC: 0.48316 cumulative IPC: 0.37834 (Simulation time: 0 hr 4 min 14 sec) 
Heartbeat CPU  0 instructions:  172000000 cycles:  296580141 heartbeat IPC: 0.41363 cumulative IPC: 0.37879 (Simulation time: 0 hr 4 min 16 sec) 
Heartbeat CPU  0 instructions:  173000000 cycles:  299256453 heartbeat IPC: 0.37365 cumulative IPC: 0.37872 (Simulation time: 0 hr 4 min 18 sec) 
Heartbeat CPU  0 instructions:  174000000 cycles:  301719343 heartbeat IPC: 0.40603 cumulative IPC: 0.37906 (Simulation time: 0 hr 4 min 20 sec) 
Heartbeat CPU  0 instructions:  175000000 cycles:  304237708 heartbeat IPC: 0.39708 cumulative IPC: 0.37929 (Simulation time: 0 hr 4 min 22 sec) 
Heartbeat CPU  0 instructions:  176000000 cycles:  306919862 heartbeat IPC: 0.37283 cumulative IPC: 0.37920 (Simulation time: 0 hr 4 min 24 sec) 
Heartbeat CPU  0 instructions:  177000000 cycles:  309667350 heartbeat IPC: 0.36397 cumulative IPC: 0.37900 (Simulation time: 0 hr 4 min 26 sec) 
Heartbeat CPU  0 instructions:  178000003 cycles:  312305692 heartbeat IPC: 0.37903 cumulative IPC: 0.37900 (Simulation time: 0 hr 4 min 27 sec) 
Heartbeat CPU  0 instructions:  179000002 cycles:  314991664 heartbeat IPC: 0.37230 cumulative IPC: 0.37891 (Simulation time: 0 hr 4 min 29 sec) 
Heartbeat CPU  0 instructions:  180000000 cycles:  317585927 heartbeat IPC: 0.38547 cumulative IPC: 0.37899 (Simulation time: 0 hr 4 min 31 sec) 
Heartbeat CPU  0 instructions:  181000001 cycles:  320297677 heartbeat IPC: 0.36877 cumulative IPC: 0.37886 (Simulation time: 0 hr 4 min 33 sec) 
Heartbeat CPU  0 instructions:  182000000 cycles:  323142420 heartbeat IPC: 0.35153 cumulative IPC: 0.37850 (Simulation time: 0 hr 4 min 35 sec) 
Heartbeat CPU  0 instructions:  183000000 cycles:  325849053 heartbeat IPC: 0.36946 cumulative IPC: 0.37839 (Simulation time: 0 hr 4 min 37 sec) 
Heartbeat CPU  0 instructions:  184000000 cycles:  328534417 heartbeat IPC: 0.37239 cumulative IPC: 0.37832 (Simulation time: 0 hr 4 min 39 sec) 
Heartbeat CPU  0 instructions:  185000000 cycles:  331203344 heartbeat IPC: 0.37468 cumulative IPC: 0.37828 (Simulation time: 0 hr 4 min 41 sec) 
Heartbeat CPU  0 instructions:  186000003 cycles:  333916633 heartbeat IPC: 0.36856 cumulative IPC: 0.37816 (Simulation time: 0 hr 4 min 43 sec) 
Heartbeat CPU  0 instructions:  187000001 cycles:  336674869 heartbeat IPC: 0.36255 cumulative IPC: 0.37797 (Simulation time: 0 hr 4 min 44 sec) 
Heartbeat CPU  0 instructions:  188000000 cycles:  339392274 heartbeat IPC: 0.36800 cumulative IPC: 0.37786 (Simulation time: 0 hr 4 min 46 sec) 
Heartbeat CPU  0 instructions:  189000001 cycles:  342113924 heartbeat IPC: 0.36742 cumulative IPC: 0.37774 (Simulation time: 0 hr 4 min 48 sec) 
Heartbeat CPU  0 instructions:  190000000 cycles:  344891935 heartbeat IPC: 0.35997 cumulative IPC: 0.37753 (Simulation time: 0 hr 4 min 50 sec) 
Heartbeat CPU  0 instructions:  191000001 cycles:  347596609 heartbeat IPC: 0.36973 cumulative IPC: 0.37744 (Simulation time: 0 hr 4 min 52 sec) 
Heartbeat CPU  0 instructions:  192000000 cycles:  350348255 heartbeat IPC: 0.36342 cumulative IPC: 0.37728 (Simulation time: 0 hr 4 min 54 sec) 
Heartbeat CPU  0 instructions:  193000002 cycles:  352931143 heartbeat IPC: 0.38716 cumulative IPC: 0.37739 (Simulation time: 0 hr 4 min 56 sec) 
Heartbeat CPU  0 instructions:  194000001 cycles:  354866742 heartbeat IPC: 0.51664 cumulative IPC: 0.37847 (Simulation time: 0 hr 4 min 57 sec) 
Heartbeat CPU  0 instructions:  195000000 cycles:  357289424 heartbeat IPC: 0.41277 cumulative IPC: 0.37880 (Simulation time: 0 hr 4 min 59 sec) 
Heartbeat CPU  0 instructions:  196000000 cycles:  360175308 heartbeat IPC: 0.34651 cumulative IPC: 0.37844 (Simulation time: 0 hr 5 min 1 sec) 
Heartbeat CPU  0 instructions:  197000000 cycles:  362850357 heartbeat IPC: 0.37382 cumulative IPC: 0.37839 (Simulation time: 0 hr 5 min 3 sec) 
Heartbeat CPU  0 instructions:  198000000 cycles:  365560085 heartbeat IPC: 0.36904 cumulative IPC: 0.37829 (Simulation time: 0 hr 5 min 5 sec) 
Heartbeat CPU  0 instructions:  199000000 cycles:  368154043 heartbeat IPC: 0.38551 cumulative IPC: 0.37836 (Simulation time: 0 hr 5 min 7 sec) 
Heartbeat CPU  0 instructions:  200000000 cycles:  370675467 heartbeat IPC: 0.39660 cumulative IPC: 0.37854 (Simulation time: 0 hr 5 min 8 sec) 
Heartbeat CPU  0 instructions:  201000001 cycles:  373399636 heartbeat IPC: 0.36708 cumulative IPC: 0.37842 (Simulation time: 0 hr 5 min 10 sec) 
Heartbeat CPU  0 instructions:  202000002 cycles:  376058088 heartbeat IPC: 0.37616 cumulative IPC: 0.37840 (Simulation time: 0 hr 5 min 12 sec) 
Heartbeat CPU  0 instructions:  203000001 cycles:  378802632 heartbeat IPC: 0.36436 cumulative IPC: 0.37826 (Simulation time: 0 hr 5 min 14 sec) 
Heartbeat CPU  0 instructions:  204000000 cycles:  381564475 heartbeat IPC: 0.36208 cumulative IPC: 0.37809 (Simulation time: 0 hr 5 min 16 sec) 
Heartbeat CPU  0 instructions:  205000002 cycles:  384255506 heartbeat IPC: 0.37161 cumulative IPC: 0.37803 (Simulation time: 0 hr 5 min 18 sec) 
Heartbeat CPU  0 instructions:  206000002 cycles:  386952940 heartbeat IPC: 0.37072 cumulative IPC: 0.37796 (Simulation time: 0 hr 5 min 20 sec) 
Heartbeat CPU  0 instructions:  207000001 cycles:  389645353 heartbeat IPC: 0.37141 cumulative IPC: 0.37790 (Simulation time: 0 hr 5 min 22 sec) 
Heartbeat CPU  0 instructions:  208000000 cycles:  392387556 heartbeat IPC: 0.36467 cumulative IPC: 0.37777 (Simulation time: 0 hr 5 min 24 sec) 
Heartbeat CPU  0 instructions:  209000001 cycles:  394925767 heartbeat IPC: 0.39398 cumulative IPC: 0.37791 (Simulation time: 0 hr 5 min 25 sec) 
Heartbeat CPU  0 instructions:  210000000 cycles:  397137750 heartbeat IPC: 0.45208 cumulative IPC: 0.37848 (Simulation time: 0 hr 5 min 27 sec) 
Heartbeat CPU  0 instructions:  211000000 cycles:  399390552 heartbeat IPC: 0.44389 cumulative IPC: 0.37898 (Simulation time: 0 hr 5 min 29 sec) 
Heartbeat CPU  0 instructions:  212000000 cycles:  402166831 heartbeat IPC: 0.36019 cumulative IPC: 0.37881 (Simulation time: 0 hr 5 min 31 sec) 
Heartbeat CPU  0 instructions:  213000000 cycles:  404882882 heartbeat IPC: 0.36818 cumulative IPC: 0.37871 (Simulation time: 0 hr 5 min 33 sec) 
Heartbeat CPU  0 instructions:  214000000 cycles:  407691651 heartbeat IPC: 0.35603 cumulative IPC: 0.37850 (Simulation time: 0 hr 5 min 34 sec) 
Heartbeat CPU  0 instructions:  215000002 cycles:  410430250 heartbeat IPC: 0.36515 cumulative IPC: 0.37838 (Simulation time: 0 hr 5 min 36 sec) 
Heartbeat CPU  0 instructions:  216000000 cycles:  413143955 heartbeat IPC: 0.36850 cumulative IPC: 0.37829 (Simulation time: 0 hr 5 min 38 sec) 
Heartbeat CPU  0 instructions:  217000000 cycles:  415814647 heartbeat IPC: 0.37443 cumulative IPC: 0.37826 (Simulation time: 0 hr 5 min 40 sec) 
Heartbeat CPU  0 instructions:  218000003 cycles:  418536701 heartbeat IPC: 0.36737 cumulative IPC: 0.37816 (Simulation time: 0 hr 5 min 42 sec) 
Heartbeat CPU  0 instructions:  219000000 cycles:  421263995 heartbeat IPC: 0.36666 cumulative IPC: 0.37806 (Simulation time: 0 hr 5 min 44 sec) 
Heartbeat CPU  0 instructions:  220000000 cycles:  423940606 heartbeat IPC: 0.37361 cumulative IPC: 0.37802 (Simulation time: 0 hr 5 min 46 sec) 
Heartbeat CPU  0 instructions:  221000001 cycles:  426690219 heartbeat IPC: 0.36369 cumulative IPC: 0.37790 (Simulation time: 0 hr 5 min 48 sec) 
Heartbeat CPU  0 instructions:  222000001 cycles:  429445345 heartbeat IPC: 0.36296 cumulative IPC: 0.37777 (Simulation time: 0 hr 5 min 50 sec) 
Heartbeat CPU  0 instructions:  223000002 cycles:  432209125 heartbeat IPC: 0.36182 cumulative IPC: 0.37764 (Simulation time: 0 hr 5 min 51 sec) 
Heartbeat CPU  0 instructions:  224000000 cycles:  434978125 heartbeat IPC: 0.36114 cumulative IPC: 0.37750 (Simulation time: 0 hr 5 min 53 sec) 
Heartbeat CPU  0 instructions:  225000000 cycles:  437732334 heartbeat IPC: 0.36308 cumulative IPC: 0.37738 (Simulation time: 0 hr 5 min 55 sec) 
Heartbeat CPU  0 instructions:  226000001 cycles:  440520500 heartbeat IPC: 0.35866 cumulative IPC: 0.37722 (Simulation time: 0 hr 5 min 57 sec) 
Heartbeat CPU  0 instructions:  227000000 cycles:  443227547 heartbeat IPC: 0.36941 cumulative IPC: 0.37716 (Simulation time: 0 hr 5 min 59 sec) 
Heartbeat CPU  0 instructions:  228000000 cycles:  445944487 heartbeat IPC: 0.36806 cumulative IPC: 0.37709 (Simulation time: 0 hr 6 min 1 sec) 
Heartbeat CPU  0 instructions:  229000000 cycles:  448278686 heartbeat IPC: 0.42841 cumulative IPC: 0.37744 (Simulation time: 0 hr 6 min 2 sec) 
Heartbeat CPU  0 instructions:  230000000 cycles:  450323470 heartbeat IPC: 0.48905 cumulative IPC: 0.37810 (Simulation time: 0 hr 6 min 4 sec) 
Heartbeat CPU  0 instructions:  231000001 cycles:  453077121 heartbeat IPC: 0.36315 cumulative IPC: 0.37798 (Simulation time: 0 hr 6 min 6 sec) 
Heartbeat CPU  0 instructions:  232000000 cycles:  455555856 heartbeat IPC: 0.40343 cumulative IPC: 0.37816 (Simulation time: 0 hr 6 min 8 sec) 
Heartbeat CPU  0 instructions:  233000002 cycles:  458083955 heartbeat IPC: 0.39555 cumulative IPC: 0.37829 (Simulation time: 0 hr 6 min 10 sec) 
Heartbeat CPU  0 instructions:  234000002 cycles:  460763166 heartbeat IPC: 0.37324 cumulative IPC: 0.37825 (Simulation time: 0 hr 6 min 12 sec) 
Heartbeat CPU  0 instructions:  235000002 cycles:  463469146 heartbeat IPC: 0.36955 cumulative IPC: 0.37818 (Simulation time: 0 hr 6 min 13 sec) 
Heartbeat CPU  0 instructions:  236000000 cycles:  466089337 heartbeat IPC: 0.38165 cumulative IPC: 0.37821 (Simulation time: 0 hr 6 min 15 sec) 
Heartbeat CPU  0 instructions:  237000001 cycles:  468738528 heartbeat IPC: 0.37747 cumulative IPC: 0.37820 (Simulation time: 0 hr 6 min 17 sec) 
Heartbeat CPU  0 instructions:  238000002 cycles:  471508398 heartbeat IPC: 0.36103 cumulative IPC: 0.37807 (Simulation time: 0 hr 6 min 19 sec) 
Heartbeat CPU  0 instructions:  239000000 cycles:  474105578 heartbeat IPC: 0.38503 cumulative IPC: 0.37812 (Simulation time: 0 hr 6 min 21 sec) 
Heartbeat CPU  0 instructions:  240000000 cycles:  476859164 heartbeat IPC: 0.36316 cumulative IPC: 0.37801 (Simulation time: 0 hr 6 min 23 sec) 
Heartbeat CPU  0 instructions:  241000001 cycles:  479641436 heartbeat IPC: 0.35942 cumulative IPC: 0.37787 (Simulation time: 0 hr 6 min 25 sec) 
Heartbeat CPU  0 instructions:  242000000 cycles:  482315147 heartbeat IPC: 0.37401 cumulative IPC: 0.37785 (Simulation time: 0 hr 6 min 27 sec) 
Heartbeat CPU  0 instructions:  243000002 cycles:  485106485 heartbeat IPC: 0.35825 cumulative IPC: 0.37770 (Simulation time: 0 hr 6 min 28 sec) 
Heartbeat CPU  0 instructions:  244000000 cycles:  487834116 heartbeat IPC: 0.36662 cumulative IPC: 0.37762 (Simulation time: 0 hr 6 min 30 sec) 
Heartbeat CPU  0 instructions:  245000001 cycles:  490471261 heartbeat IPC: 0.37920 cumulative IPC: 0.37763 (Simulation time: 0 hr 6 min 32 sec) 
Heartbeat CPU  0 instructions:  246000000 cycles:  492941245 heartbeat IPC: 0.40486 cumulative IPC: 0.37781 (Simulation time: 0 hr 6 min 34 sec) 
Heartbeat CPU  0 instructions:  247000001 cycles:  495693955 heartbeat IPC: 0.36328 cumulative IPC: 0.37770 (Simulation time: 0 hr 6 min 36 sec) 
Heartbeat CPU  0 instructions:  248000000 cycles:  498214751 heartbeat IPC: 0.39670 cumulative IPC: 0.37783 (Simulation time: 0 hr 6 min 38 sec) 
Heartbeat CPU  0 instructions:  249000000 cycles:  500891630 heartbeat IPC: 0.37357 cumulative IPC: 0.37780 (Simulation time: 0 hr 6 min 40 sec) 
Heartbeat CPU  0 instructions:  250000000 cycles:  503563321 heartbeat IPC: 0.37429 cumulative IPC: 0.37777 (Simulation time: 0 hr 6 min 42 sec) 
Heartbeat CPU  0 instructions:  251000000 cycles:  505910263 heartbeat IPC: 0.42609 cumulative IPC: 0.37806 (Simulation time: 0 hr 6 min 43 sec) 
Heartbeat CPU  0 instructions:  252000000 cycles:  508194418 heartbeat IPC: 0.43780 cumulative IPC: 0.37840 (Simulation time: 0 hr 6 min 45 sec) 
Heartbeat CPU  0 instructions:  253000001 cycles:  510621536 heartbeat IPC: 0.41201 cumulative IPC: 0.37860 (Simulation time: 0 hr 6 min 47 sec) 
Heartbeat CPU  0 instructions:  254000000 cycles:  513219481 heartbeat IPC: 0.38492 cumulative IPC: 0.37864 (Simulation time: 0 hr 6 min 49 sec) 
Heartbeat CPU  0 instructions:  255000001 cycles:  515600938 heartbeat IPC: 0.41991 cumulative IPC: 0.37888 (Simulation time: 0 hr 6 min 51 sec) 
Heartbeat CPU  0 instructions:  256000000 cycles:  518386896 heartbeat IPC: 0.35894 cumulative IPC: 0.37875 (Simulation time: 0 hr 6 min 52 sec) 
Heartbeat CPU  0 instructions:  257000002 cycles:  521181230 heartbeat IPC: 0.35787 cumulative IPC: 0.37860 (Simulation time: 0 hr 6 min 54 sec) 
Heartbeat CPU  0 instructions:  258000001 cycles:  523903350 heartbeat IPC: 0.36736 cumulative IPC: 0.37853 (Simulation time: 0 hr 6 min 56 sec) 
Heartbeat CPU  0 instructions:  259000000 cycles:  526577697 heartbeat IPC: 0.37392 cumulative IPC: 0.37850 (Simulation time: 0 hr 6 min 58 sec) 
Heartbeat CPU  0 instructions:  260000000 cycles:  529259236 heartbeat IPC: 0.37292 cumulative IPC: 0.37847 (Simulation time: 0 hr 7 min 0 sec) 
Heartbeat CPU  0 instructions:  261000001 cycles:  532051760 heartbeat IPC: 0.35810 cumulative IPC: 0.37833 (Simulation time: 0 hr 7 min 2 sec) 
Heartbeat CPU  0 instructions:  262000003 cycles:  534691950 heartbeat IPC: 0.37876 cumulative IPC: 0.37834 (Simulation time: 0 hr 7 min 4 sec) 
Heartbeat CPU  0 instructions:  263000002 cycles:  537477184 heartbeat IPC: 0.35904 cumulative IPC: 0.37821 (Simulation time: 0 hr 7 min 6 sec) 
Heartbeat CPU  0 instructions:  264000000 cycles:  540091651 heartbeat IPC: 0.38249 cumulative IPC: 0.37824 (Simulation time: 0 hr 7 min 8 sec) 
Heartbeat CPU  0 instructions:  265000000 cycles:  542821958 heartbeat IPC: 0.36626 cumulative IPC: 0.37816 (Simulation time: 0 hr 7 min 10 sec) 
Heartbeat CPU  0 instructions:  266000001 cycles:  545628449 heartbeat IPC: 0.35632 cumulative IPC: 0.37802 (Simulation time: 0 hr 7 min 11 sec) 
Heartbeat CPU  0 instructions:  267000003 cycles:  548324870 heartbeat IPC: 0.37086 cumulative IPC: 0.37798 (Simulation time: 0 hr 7 min 13 sec) 
Heartbeat CPU  0 instructions:  268000000 cycles:  551084554 heartbeat IPC: 0.36236 cumulative IPC: 0.37788 (Simulation time: 0 hr 7 min 15 sec) 
Heartbeat CPU  0 instructions:  269000001 cycles:  553817219 heartbeat IPC: 0.36594 cumulative IPC: 0.37781 (Simulation time: 0 hr 7 min 17 sec) 
Heartbeat CPU  0 instructions:  270000000 cycles:  556675832 heartbeat IPC: 0.34982 cumulative IPC: 0.37763 (Simulation time: 0 hr 7 min 19 sec) 
Heartbeat CPU  0 instructions:  271000000 cycles:  559390848 heartbeat IPC: 0.36832 cumulative IPC: 0.37757 (Simulation time: 0 hr 7 min 21 sec) 
Heartbeat CPU  0 instructions:  272000000 cycles:  562096478 heartbeat IPC: 0.36960 cumulative IPC: 0.37753 (Simulation time: 0 hr 7 min 23 sec) 
Heartbeat CPU  0 instructions:  273000001 cycles:  564475296 heartbeat IPC: 0.42038 cumulative IPC: 0.37775 (Simulation time: 0 hr 7 min 24 sec) 
Heartbeat CPU  0 instructions:  274000000 cycles:  566719570 heartbeat IPC: 0.44558 cumulative IPC: 0.37808 (Simulation time: 0 hr 7 min 26 sec) 
Heartbeat CPU  0 instructions:  275000001 cycles:  569174296 heartbeat IPC: 0.40738 cumulative IPC: 0.37824 (Simulation time: 0 hr 7 min 28 sec) 
Heartbeat CPU  0 instructions:  276000000 cycles:  571797228 heartbeat IPC: 0.38125 cumulative IPC: 0.37825 (Simulation time: 0 hr 7 min 30 sec) 
Heartbeat CPU  0 instructions:  277000000 cycles:  574567977 heartbeat IPC: 0.36091 cumulative IPC: 0.37815 (Simulation time: 0 hr 7 min 32 sec) 
Heartbeat CPU  0 instructions:  278000001 cycles:  577400106 heartbeat IPC: 0.35309 cumulative IPC: 0.37800 (Simulation time: 0 hr 7 min 33 sec) 
Heartbeat CPU  0 instructions:  279000002 cycles:  580137707 heartbeat IPC: 0.36528 cumulative IPC: 0.37793 (Simulation time: 0 hr 7 min 35 sec) 
Heartbeat CPU  0 instructions:  280000000 cycles:  582813543 heartbeat IPC: 0.37371 cumulative IPC: 0.37790 (Simulation time: 0 hr 7 min 37 sec) 
Heartbeat CPU  0 instructions:  281000000 cycles:  585519858 heartbeat IPC: 0.36951 cumulative IPC: 0.37786 (Simulation time: 0 hr 7 min 39 sec) 
Heartbeat CPU  0 instructions:  282000003 cycles:  588298410 heartbeat IPC: 0.35990 cumulative IPC: 0.37775 (Simulation time: 0 hr 7 min 41 sec) 
Heartbeat CPU  0 instructions:  283000003 cycles:  591007810 heartbeat IPC: 0.36909 cumulative IPC: 0.37770 (Simulation time: 0 hr 7 min 43 sec) 
Heartbeat CPU  0 instructions:  284000000 cycles:  593618487 heartbeat IPC: 0.38304 cumulative IPC: 0.37773 (Simulation time: 0 hr 7 min 45 sec) 
Heartbeat CPU  0 instructions:  285000001 cycles:  596399752 heartbeat IPC: 0.35955 cumulative IPC: 0.37763 (Simulation time: 0 hr 7 min 47 sec) 
Heartbeat CPU  0 instructions:  286000003 cycles:  599063393 heartbeat IPC: 0.37543 cumulative IPC: 0.37762 (Simulation time: 0 hr 7 min 49 sec) 
Heartbeat CPU  0 instructions:  287000000 cycles:  601788526 heartbeat IPC: 0.36695 cumulative IPC: 0.37756 (Simulation time: 0 hr 7 min 50 sec) 
Heartbeat CPU  0 instructions:  288000000 cycles:  604555814 heartbeat IPC: 0.36136 cumulative IPC: 0.37747 (Simulation time: 0 hr 7 min 52 sec) 
Heartbeat CPU  0 instructions:  289000000 cycles:  607263802 heartbeat IPC: 0.36928 cumulative IPC: 0.37742 (Simulation time: 0 hr 7 min 54 sec) 
Heartbeat CPU  0 instructions:  290000000 cycles:  610063832 heartbeat IPC: 0.35714 cumulative IPC: 0.37731 (Simulation time: 0 hr 7 min 56 sec) 
Heartbeat CPU  0 instructions:  291000000 cycles:  612786940 heartbeat IPC: 0.36723 cumulative IPC: 0.37726 (Simulation time: 0 hr 7 min 58 sec) 
Heartbeat CPU  0 instructions:  292000000 cycles:  615468216 heartbeat IPC: 0.37296 cumulative IPC: 0.37723 (Simulation time: 0 hr 8 min 0 sec) 
Heartbeat CPU  0 instructions:  293000002 cycles:  618278705 heartbeat IPC: 0.35581 cumulative IPC: 0.37712 (Simulation time: 0 hr 8 min 2 sec) 
Heartbeat CPU  0 instructions:  294000003 cycles:  620971570 heartbeat IPC: 0.37135 cumulative IPC: 0.37709 (Simulation time: 0 hr 8 min 4 sec) 
Heartbeat CPU  0 instructions:  295000003 cycles:  623720690 heartbeat IPC: 0.36375 cumulative IPC: 0.37702 (Simulation time: 0 hr 8 min 5 sec) 
Heartbeat CPU  0 instructions:  296000000 cycles:  626328984 heartbeat IPC: 0.38339 cumulative IPC: 0.37705 (Simulation time: 0 hr 8 min 7 sec) 
Heartbeat CPU  0 instructions:  297000001 cycles:  628461885 heartbeat IPC: 0.46885 cumulative IPC: 0.37742 (Simulation time: 0 hr 8 min 9 sec) 
Heartbeat CPU  0 instructions:  298000000 cycles:  630853058 heartbeat IPC: 0.41820 cumulative IPC: 0.37761 (Simulation time: 0 hr 8 min 11 sec) 
Heartbeat CPU  0 instructions:  299000000 cycles:  633482385 heartbeat IPC: 0.38033 cumulative IPC: 0.37762 (Simulation time: 0 hr 8 min 13 sec) 
Heartbeat CPU  0 instructions:  300000000 cycles:  635984194 heartbeat IPC: 0.39971 cumulative IPC: 0.37773 (Simulation time: 0 hr 8 min 14 sec) 
Heartbeat CPU  0 instructions:  301000001 cycles:  638469959 heartbeat IPC: 0.40229 cumulative IPC: 0.37784 (Simulation time: 0 hr 8 min 16 sec) 
Heartbeat CPU  0 instructions:  302000000 cycles:  641046931 heartbeat IPC: 0.38805 cumulative IPC: 0.37789 (Simulation time: 0 hr 8 min 18 sec) 
Heartbeat CPU  0 instructions:  303000003 cycles:  643781628 heartbeat IPC: 0.36567 cumulative IPC: 0.37783 (Simulation time: 0 hr 8 min 20 sec) 
Heartbeat CPU  0 instructions:  304000000 cycles:  646440081 heartbeat IPC: 0.37616 cumulative IPC: 0.37782 (Simulation time: 0 hr 8 min 22 sec) 
Heartbeat CPU  0 instructions:  305000000 cycles:  649159334 heartbeat IPC: 0.36775 cumulative IPC: 0.37777 (Simulation time: 0 hr 8 min 24 sec) 
Heartbeat CPU  0 instructions:  306000002 cycles:  651983509 heartbeat IPC: 0.35409 cumulative IPC: 0.37765 (Simulation time: 0 hr 8 min 26 sec) 
Heartbeat CPU  0 instructions:  307000000 cycles:  654707637 heartbeat IPC: 0.36709 cumulative IPC: 0.37759 (Simulation time: 0 hr 8 min 28 sec) 
Heartbeat CPU  0 instructions:  308000000 cycles:  657390426 heartbeat IPC: 0.37275 cumulative IPC: 0.37757 (Simulation time: 0 hr 8 min 30 sec) 
Heartbeat CPU  0 instructions:  309000000 cycles:  660085931 heartbeat IPC: 0.37099 cumulative IPC: 0.37754 (Simulation time: 0 hr 8 min 31 sec) 
Heartbeat CPU  0 instructions:  310000000 cycles:  662831334 heartbeat IPC: 0.36425 cumulative IPC: 0.37747 (Simulation time: 0 hr 8 min 33 sec) 
Heartbeat CPU  0 instructions:  311000003 cycles:  665544478 heartbeat IPC: 0.36858 cumulative IPC: 0.37743 (Simulation time: 0 hr 8 min 35 sec) 
Heartbeat CPU  0 instructions:  312000000 cycles:  668159059 heartbeat IPC: 0.38247 cumulative IPC: 0.37745 (Simulation time: 0 hr 8 min 37 sec) 
Heartbeat CPU  0 instructions:  313000000 cycles:  670906819 heartbeat IPC: 0.36393 cumulative IPC: 0.37739 (Simulation time: 0 hr 8 min 39 sec) 
Heartbeat CPU  0 instructions:  314000002 cycles:  673598402 heartbeat IPC: 0.37153 cumulative IPC: 0.37736 (Simulation time: 0 hr 8 min 41 sec) 
Heartbeat CPU  0 instructions:  315000002 cycles:  676270068 heartbeat IPC: 0.37430 cumulative IPC: 0.37735 (Simulation time: 0 hr 8 min 43 sec) 
Heartbeat CPU  0 instructions:  316000000 cycles:  679011400 heartbeat IPC: 0.36479 cumulative IPC: 0.37729 (Simulation time: 0 hr 8 min 45 sec) 
Heartbeat CPU  0 instructions:  317000001 cycles:  681760294 heartbeat IPC: 0.36378 cumulative IPC: 0.37722 (Simulation time: 0 hr 8 min 47 sec) 
Heartbeat CPU  0 instructions:  318000000 cycles:  684515672 heartbeat IPC: 0.36293 cumulative IPC: 0.37715 (Simulation time: 0 hr 8 min 48 sec) 
Heartbeat CPU  0 instructions:  319000000 cycles:  687257506 heartbeat IPC: 0.36472 cumulative IPC: 0.37709 (Simulation time: 0 hr 8 min 50 sec) 
Heartbeat CPU  0 instructions:  320000000 cycles:  689932761 heartbeat IPC: 0.37380 cumulative IPC: 0.37708 (Simulation time: 0 hr 8 min 52 sec) 
Heartbeat CPU  0 instructions:  321000003 cycles:  692460739 heartbeat IPC: 0.39557 cumulative IPC: 0.37716 (Simulation time: 0 hr 8 min 54 sec) 
Heartbeat CPU  0 instructions:  322000002 cycles:  694947319 heartbeat IPC: 0.40216 cumulative IPC: 0.37726 (Simulation time: 0 hr 8 min 56 sec) 
Heartbeat CPU  0 instructions:  323000000 cycles:  697066455 heartbeat IPC: 0.47189 cumulative IPC: 0.37760 (Simulation time: 0 hr 8 min 57 sec) 
Heartbeat CPU  0 instructions:  324000000 cycles:  699464022 heartbeat IPC: 0.41709 cumulative IPC: 0.37776 (Simulation time: 0 hr 8 min 59 sec) 
Heartbeat CPU  0 instructions:  325000000 cycles:  702092299 heartbeat IPC: 0.38048 cumulative IPC: 0.37778 (Simulation time: 0 hr 9 min 1 sec) 
Heartbeat CPU  0 instructions:  326000000 cycles:  704713556 heartbeat IPC: 0.38150 cumulative IPC: 0.37779 (Simulation time: 0 hr 9 min 3 sec) 
Heartbeat CPU  0 instructions:  327000002 cycles:  707399104 heartbeat IPC: 0.37236 cumulative IPC: 0.37777 (Simulation time: 0 hr 9 min 5 sec) 
Heartbeat CPU  0 instructions:  328000000 cycles:  710027990 heartbeat IPC: 0.38039 cumulative IPC: 0.37778 (Simulation time: 0 hr 9 min 7 sec) 
Heartbeat CPU  0 instructions:  329000001 cycles:  712732578 heartbeat IPC: 0.36974 cumulative IPC: 0.37774 (Simulation time: 0 hr 9 min 9 sec) 
Heartbeat CPU  0 instructions:  330000000 cycles:  715538307 heartbeat IPC: 0.35641 cumulative IPC: 0.37764 (Simulation time: 0 hr 9 min 11 sec) 
Heartbeat CPU  0 instructions:  331000000 cycles:  718347625 heartbeat IPC: 0.35596 cumulative IPC: 0.37755 (Simulation time: 0 hr 9 min 12 sec) 
Heartbeat CPU  0 instructions:  332000000 cycles:  721004312 heartbeat IPC: 0.37641 cumulative IPC: 0.37754 (Simulation time: 0 hr 9 min 14 sec) 
Heartbeat CPU  0 instructions:  333000000 cycles:  723661011 heartbeat IPC: 0.37641 cumulative IPC: 0.37754 (Simulation time: 0 hr 9 min 16 sec) 
Heartbeat CPU  0 instructions:  334000001 cycles:  726405141 heartbeat IPC: 0.36441 cumulative IPC: 0.37748 (Simulation time: 0 hr 9 min 18 sec) 
Heartbeat CPU  0 instructions:  335000003 cycles:  729142489 heartbeat IPC: 0.36532 cumulative IPC: 0.37742 (Simulation time: 0 hr 9 min 20 sec) 
Heartbeat CPU  0 instructions:  336000000 cycles:  731795515 heartbeat IPC: 0.37693 cumulative IPC: 0.37742 (Simulation time: 0 hr 9 min 22 sec) 
Heartbeat CPU  0 instructions:  337000000 cycles:  734499865 heartbeat IPC: 0.36977 cumulative IPC: 0.37739 (Simulation time: 0 hr 9 min 24 sec) 
Heartbeat CPU  0 instructions:  338000000 cycles:  737239204 heartbeat IPC: 0.36505 cumulative IPC: 0.37734 (Simulation time: 0 hr 9 min 26 sec) 
Heartbeat CPU  0 instructions:  339000000 cycles:  739876921 heartbeat IPC: 0.37912 cumulative IPC: 0.37734 (Simulation time: 0 hr 9 min 27 sec) 
Heartbeat CPU  0 instructions:  340000000 cycles:  742606416 heartbeat IPC: 0.36637 cumulative IPC: 0.37730 (Simulation time: 0 hr 9 min 29 sec) 
Heartbeat CPU  0 instructions:  341000002 cycles:  745409205 heartbeat IPC: 0.35679 cumulative IPC: 0.37721 (Simulation time: 0 hr 9 min 31 sec) 
Heartbeat CPU  0 instructions:  342000000 cycles:  748106932 heartbeat IPC: 0.37068 cumulative IPC: 0.37718 (Simulation time: 0 hr 9 min 33 sec) 
Heartbeat CPU  0 instructions:  343000000 cycles:  750880442 heartbeat IPC: 0.36055 cumulative IPC: 0.37711 (Simulation time: 0 hr 9 min 35 sec) 
Heartbeat CPU  0 instructions:  344000000 cycles:  753591121 heartbeat IPC: 0.36891 cumulative IPC: 0.37707 (Simulation time: 0 hr 9 min 37 sec) 
Heartbeat CPU  0 instructions:  345000000 cycles:  756122979 heartbeat IPC: 0.39497 cumulative IPC: 0.37714 (Simulation time: 0 hr 9 min 39 sec) 
Heartbeat CPU  0 instructions:  346000001 cycles:  758708436 heartbeat IPC: 0.38678 cumulative IPC: 0.37718 (Simulation time: 0 hr 9 min 41 sec) 
Heartbeat CPU  0 instructions:  347000000 cycles:  760773851 heartbeat IPC: 0.48416 cumulative IPC: 0.37752 (Simulation time: 0 hr 9 min 42 sec) 
Heartbeat CPU  0 instructions:  348000000 cycles:  763035258 heartbeat IPC: 0.44220 cumulative IPC: 0.37774 (Simulation time: 0 hr 9 min 44 sec) 
Heartbeat CPU  0 instructions:  349000003 cycles:  765711060 heartbeat IPC: 0.37372 cumulative IPC: 0.37772 (Simulation time: 0 hr 9 min 46 sec) 
Heartbeat CPU  0 instructions:  350000002 cycles:  768379313 heartbeat IPC: 0.37478 cumulative IPC: 0.37771 (Simulation time: 0 hr 9 min 48 sec) 
Heartbeat CPU  0 instructions:  351000001 cycles:  771004197 heartbeat IPC: 0.38097 cumulative IPC: 0.37773 (Simulation time: 0 hr 9 min 50 sec) 
Heartbeat CPU  0 instructions:  352000000 cycles:  773717130 heartbeat IPC: 0.36860 cumulative IPC: 0.37769 (Simulation time: 0 hr 9 min 51 sec) 
Heartbeat CPU  0 instructions:  353000000 cycles:  776525648 heartbeat IPC: 0.35606 cumulative IPC: 0.37760 (Simulation time: 0 hr 9 min 53 sec) 
Heartbeat CPU  0 instructions:  354000001 cycles:  779260397 heartbeat IPC: 0.36566 cumulative IPC: 0.37755 (Simulation time: 0 hr 9 min 55 sec) 
Heartbeat CPU  0 instructions:  355000002 cycles:  781967529 heartbeat IPC: 0.36939 cumulative IPC: 0.37752 (Simulation time: 0 hr 9 min 57 sec) 
Heartbeat CPU  0 instructions:  356000000 cycles:  784610006 heartbeat IPC: 0.37843 cumulative IPC: 0.37752 (Simulation time: 0 hr 9 min 59 sec) 
Heartbeat CPU  0 instructions:  357000000 cycles:  787345109 heartbeat IPC: 0.36562 cumulative IPC: 0.37747 (Simulation time: 0 hr 10 min 1 sec) 
Heartbeat CPU  0 instructions:  358000000 cycles:  789987752 heartbeat IPC: 0.37841 cumulative IPC: 0.37748 (Simulation time: 0 hr 10 min 3 sec) 
Heartbeat CPU  0 instructions:  359000001 cycles:  792671171 heartbeat IPC: 0.37266 cumulative IPC: 0.37746 (Simulation time: 0 hr 10 min 5 sec) 
Heartbeat CPU  0 instructions:  360000000 cycles:  795412194 heartbeat IPC: 0.36483 cumulative IPC: 0.37741 (Simulation time: 0 hr 10 min 7 sec) 
Heartbeat CPU  0 instructions:  361000002 cycles:  798054275 heartbeat IPC: 0.37849 cumulative IPC: 0.37741 (Simulation time: 0 hr 10 min 8 sec) 
Heartbeat CPU  0 instructions:  362000000 cycles:  800818469 heartbeat IPC: 0.36177 cumulative IPC: 0.37735 (Simulation time: 0 hr 10 min 10 sec) 
Heartbeat CPU  0 instructions:  363000000 cycles:  803568103 heartbeat IPC: 0.36368 cumulative IPC: 0.37729 (Simulation time: 0 hr 10 min 12 sec) 
Heartbeat CPU  0 instructions:  364000000 cycles:  806295710 heartbeat IPC: 0.36662 cumulative IPC: 0.37725 (Simulation time: 0 hr 10 min 14 sec) 
Heartbeat CPU  0 instructions:  365000001 cycles:  809035468 heartbeat IPC: 0.36500 cumulative IPC: 0.37721 (Simulation time: 0 hr 10 min 16 sec) 
Heartbeat CPU  0 instructions:  366000000 cycles:  811767121 heartbeat IPC: 0.36608 cumulative IPC: 0.37716 (Simulation time: 0 hr 10 min 18 sec) 
Heartbeat CPU  0 instructions:  367000000 cycles:  814307004 heartbeat IPC: 0.39372 cumulative IPC: 0.37722 (Simulation time: 0 hr 10 min 20 sec) 
Heartbeat CPU  0 instructions:  368000000 cycles:  816878425 heartbeat IPC: 0.38889 cumulative IPC: 0.37726 (Simulation time: 0 hr 10 min 22 sec) 
Heartbeat CPU  0 instructions:  369000000 cycles:  818953921 heartbeat IPC: 0.48181 cumulative IPC: 0.37757 (Simulation time: 0 hr 10 min 23 sec) 
Heartbeat CPU  0 instructions:  370000000 cycles:  821169682 heartbeat IPC: 0.45131 cumulative IPC: 0.37780 (Simulation time: 0 hr 10 min 25 sec) 
Heartbeat CPU  0 instructions:  371000000 cycles:  823807601 heartbeat IPC: 0.37909 cumulative IPC: 0.37780 (Simulation time: 0 hr 10 min 27 sec) 
Heartbeat CPU  0 instructions:  372000000 cycles:  826657539 heartbeat IPC: 0.35088 cumulative IPC: 0.37770 (Simulation time: 0 hr 10 min 29 sec) 
Heartbeat CPU  0 instructions:  373000000 cycles:  829366603 heartbeat IPC: 0.36913 cumulative IPC: 0.37766 (Simulation time: 0 hr 10 min 30 sec) 
Heartbeat CPU  0 instructions:  374000003 cycles:  832040169 heartbeat IPC: 0.37403 cumulative IPC: 0.37765 (Simulation time: 0 hr 10 min 32 sec) 
Heartbeat CPU  0 instructions:  375000000 cycles:  834683667 heartbeat IPC: 0.37829 cumulative IPC: 0.37765 (Simulation time: 0 hr 10 min 34 sec) 
Heartbeat CPU  0 instructions:  376000000 cycles:  837440354 heartbeat IPC: 0.36275 cumulative IPC: 0.37760 (Simulation time: 0 hr 10 min 36 sec) 
Heartbeat CPU  0 instructions:  377000003 cycles:  840094078 heartbeat IPC: 0.37683 cumulative IPC: 0.37759 (Simulation time: 0 hr 10 min 38 sec) 
Heartbeat CPU  0 instructions:  378000000 cycles:  842776863 heartbeat IPC: 0.37275 cumulative IPC: 0.37758 (Simulation time: 0 hr 10 min 40 sec) 
Heartbeat CPU  0 instructions:  379000002 cycles:  845544580 heartbeat IPC: 0.36131 cumulative IPC: 0.37751 (Simulation time: 0 hr 10 min 42 sec) 
Heartbeat CPU  0 instructions:  380000000 cycles:  848213807 heartbeat IPC: 0.37464 cumulative IPC: 0.37750 (Simulation time: 0 hr 10 min 44 sec) 
Heartbeat CPU  0 instructions:  381000000 cycles:  851005902 heartbeat IPC: 0.35815 cumulative IPC: 0.37743 (Simulation time: 0 hr 10 min 45 sec) 
Heartbeat CPU  0 instructions:  382000001 cycles:  853725048 heartbeat IPC: 0.36776 cumulative IPC: 0.37740 (Simulation time: 0 hr 10 min 47 sec) 
Heartbeat CPU  0 instructions:  383000002 cycles:  856376332 heartbeat IPC: 0.37718 cumulative IPC: 0.37740 (Simulation time: 0 hr 10 min 49 sec) 
Heartbeat CPU  0 instructions:  384000000 cycles:  858475094 heartbeat IPC: 0.47647 cumulative IPC: 0.37767 (Simulation time: 0 hr 10 min 51 sec) 
Heartbeat CPU  0 instructions:  385000000 cycles:  860571387 heartbeat IPC: 0.47703 cumulative IPC: 0.37795 (Simulation time: 0 hr 10 min 52 sec) 
Heartbeat CPU  0 instructions:  386000002 cycles:  863284664 heartbeat IPC: 0.36856 cumulative IPC: 0.37791 (Simulation time: 0 hr 10 min 54 sec) 
Heartbeat CPU  0 instructions:  387000001 cycles:  865904709 heartbeat IPC: 0.38167 cumulative IPC: 0.37793 (Simulation time: 0 hr 10 min 56 sec) 
Heartbeat CPU  0 instructions:  388000000 cycles:  868631987 heartbeat IPC: 0.36667 cumulative IPC: 0.37789 (Simulation time: 0 hr 10 min 58 sec) 
Heartbeat CPU  0 instructions:  389000000 cycles:  871319374 heartbeat IPC: 0.37211 cumulative IPC: 0.37787 (Simulation time: 0 hr 11 min 0 sec) 
Heartbeat CPU  0 instructions:  390000000 cycles:  873993494 heartbeat IPC: 0.37395 cumulative IPC: 0.37785 (Simulation time: 0 hr 11 min 2 sec) 
Heartbeat CPU  0 instructions:  391000001 cycles:  876688877 heartbeat IPC: 0.37101 cumulative IPC: 0.37783 (Simulation time: 0 hr 11 min 4 sec) 
Heartbeat CPU  0 instructions:  392000000 cycles:  879419310 heartbeat IPC: 0.36624 cumulative IPC: 0.37779 (Simulation time: 0 hr 11 min 6 sec) 
Heartbeat CPU  0 instructions:  393000000 cycles:  882130498 heartbeat IPC: 0.36884 cumulative IPC: 0.37776 (Simulation time: 0 hr 11 min 7 sec) 
Heartbeat CPU  0 instructions:  394000002 cycles:  884729657 heartbeat IPC: 0.38474 cumulative IPC: 0.37778 (Simulation time: 0 hr 11 min 9 sec) 
Heartbeat CPU  0 instructions:  395000002 cycles:  887509372 heartbeat IPC: 0.35975 cumulative IPC: 0.37772 (Simulation time: 0 hr 11 min 11 sec) 
Heartbeat CPU  0 instructions:  396000000 cycles:  890150348 heartbeat IPC: 0.37865 cumulative IPC: 0.37772 (Simulation time: 0 hr 11 min 13 sec) 
Heartbeat CPU  0 instructions:  397000000 cycles:  892862285 heartbeat IPC: 0.36874 cumulative IPC: 0.37769 (Simulation time: 0 hr 11 min 15 sec) 
Heartbeat CPU  0 instructions:  398000001 cycles:  895615496 heartbeat IPC: 0.36321 cumulative IPC: 0.37764 (Simulation time: 0 hr 11 min 17 sec) 
Heartbeat CPU  0 instructions:  399000002 cycles:  898358881 heartbeat IPC: 0.36451 cumulative IPC: 0.37759 (Simulation time: 0 hr 11 min 19 sec) 
Heartbeat CPU  0 instructions:  400000000 cycles:  901138158 heartbeat IPC: 0.35981 cumulative IPC: 0.37753 (Simulation time: 0 hr 11 min 21 sec) 
Heartbeat CPU  0 instructions:  401000000 cycles:  903862643 heartbeat IPC: 0.36704 cumulative IPC: 0.37749 (Simulation time: 0 hr 11 min 22 sec) 
Heartbeat CPU  0 instructions:  402000000 cycles:  906559836 heartbeat IPC: 0.37076 cumulative IPC: 0.37747 (Simulation time: 0 hr 11 min 24 sec) 
Heartbeat CPU  0 instructions:  403000001 cycles:  909071200 heartbeat IPC: 0.39819 cumulative IPC: 0.37754 (Simulation time: 0 hr 11 min 26 sec) 
Heartbeat CPU  0 instructions:  404000000 cycles:  911579054 heartbeat IPC: 0.39875 cumulative IPC: 0.37760 (Simulation time: 0 hr 11 min 28 sec) 
Heartbeat CPU  0 instructions:  405000000 cycles:  913717594 heartbeat IPC: 0.46761 cumulative IPC: 0.37784 (Simulation time: 0 hr 11 min 30 sec) 
Heartbeat CPU  0 instructions:  406000002 cycles:  916070912 heartbeat IPC: 0.42493 cumulative IPC: 0.37798 (Simulation time: 0 hr 11 min 31 sec) 
Heartbeat CPU  0 instructions:  407000000 cycles:  918684566 heartbeat IPC: 0.38261 cumulative IPC: 0.37799 (Simulation time: 0 hr 11 min 33 sec) 
Heartbeat CPU  0 instructions:  408000000 cycles:  921417141 heartbeat IPC: 0.36596 cumulative IPC: 0.37795 (Simulation time: 0 hr 11 min 35 sec) 
Heartbeat CPU  0 instructions:  409000002 cycles:  924280114 heartbeat IPC: 0.34929 cumulative IPC: 0.37785 (Simulation time: 0 hr 11 min 37 sec) 
Heartbeat CPU  0 instructions:  410000001 cycles:  926996355 heartbeat IPC: 0.36816 cumulative IPC: 0.37782 (Simulation time: 0 hr 11 min 39 sec) 
Heartbeat CPU  0 instructions:  411000000 cycles:  929695393 heartbeat IPC: 0.37050 cumulative IPC: 0.37780 (Simulation time: 0 hr 11 min 41 sec) 
Heartbeat CPU  0 instructions:  412000000 cycles:  932323012 heartbeat IPC: 0.38057 cumulative IPC: 0.37781 (Simulation time: 0 hr 11 min 43 sec) 
Heartbeat CPU  0 instructions:  413000000 cycles:  935082948 heartbeat IPC: 0.36233 cumulative IPC: 0.37775 (Simulation time: 0 hr 11 min 45 sec) 
Heartbeat CPU  0 instructions:  414000000 cycles:  937723613 heartbeat IPC: 0.37869 cumulative IPC: 0.37776 (Simulation time: 0 hr 11 min 46 sec) 
Heartbeat CPU  0 instructions:  415000000 cycles:  940425919 heartbeat IPC: 0.37005 cumulative IPC: 0.37773 (Simulation time: 0 hr 11 min 48 sec) 
Heartbeat CPU  0 instructions:  416000000 cycles:  943173857 heartbeat IPC: 0.36391 cumulative IPC: 0.37769 (Simulation time: 0 hr 11 min 50 sec) 
Heartbeat CPU  0 instructions:  417000003 cycles:  945797885 heartbeat IPC: 0.38109 cumulative IPC: 0.37770 (Simulation time: 0 hr 11 min 52 sec) 
Heartbeat CPU  0 instructions:  418000000 cycles:  948558985 heartbeat IPC: 0.36217 cumulative IPC: 0.37765 (Simulation time: 0 hr 11 min 54 sec) 
Heartbeat CPU  0 instructions:  419000000 cycles:  951342776 heartbeat IPC: 0.35922 cumulative IPC: 0.37759 (Simulation time: 0 hr 11 min 56 sec) 
Heartbeat CPU  0 instructions:  420000000 cycles:  954053275 heartbeat IPC: 0.36894 cumulative IPC: 0.37756 (Simulation time: 0 hr 11 min 58 sec) 
Heartbeat CPU  0 instructions:  421000000 cycles:  956831411 heartbeat IPC: 0.35995 cumulative IPC: 0.37750 (Simulation time: 0 hr 12 min 0 sec) 
Heartbeat CPU  0 instructions:  422000001 cycles:  959526490 heartbeat IPC: 0.37105 cumulative IPC: 0.37748 (Simulation time: 0 hr 12 min 2 sec) 
Heartbeat CPU  0 instructions:  423000000 cycles:  962008615 heartbeat IPC: 0.40288 cumulative IPC: 0.37755 (Simulation time: 0 hr 12 min 3 sec) 
Heartbeat CPU  0 instructions:  424000000 cycles:  963978083 heartbeat IPC: 0.50775 cumulative IPC: 0.37785 (Simulation time: 0 hr 12 min 5 sec) 
Heartbeat CPU  0 instructions:  425000001 cycles:  966380709 heartbeat IPC: 0.41621 cumulative IPC: 0.37796 (Simulation time: 0 hr 12 min 7 sec) 
Heartbeat CPU  0 instructions:  426000001 cycles:  969021889 heartbeat IPC: 0.37862 cumulative IPC: 0.37796 (Simulation time: 0 hr 12 min 9 sec) 
Heartbeat CPU  0 instructions:  427000000 cycles:  971730928 heartbeat IPC: 0.36913 cumulative IPC: 0.37793 (Simulation time: 0 hr 12 min 10 sec) 
Heartbeat CPU  0 instructions:  428000000 cycles:  974558613 heartbeat IPC: 0.35365 cumulative IPC: 0.37785 (Simulation time: 0 hr 12 min 12 sec) 
Heartbeat CPU  0 instructions:  429000001 cycles:  977337394 heartbeat IPC: 0.35987 cumulative IPC: 0.37780 (Simulation time: 0 hr 12 min 14 sec) 
Heartbeat CPU  0 instructions:  430000001 cycles:  980025539 heartbeat IPC: 0.37200 cumulative IPC: 0.37778 (Simulation time: 0 hr 12 min 16 sec) 
Heartbeat CPU  0 instructions:  431000000 cycles:  982698611 heartbeat IPC: 0.37410 cumulative IPC: 0.37777 (Simulation time: 0 hr 12 min 18 sec) 
Heartbeat CPU  0 instructions:  432000000 cycles:  985418902 heartbeat IPC: 0.36761 cumulative IPC: 0.37774 (Simulation time: 0 hr 12 min 20 sec) 
Heartbeat CPU  0 instructions:  433000001 cycles:  988173525 heartbeat IPC: 0.36303 cumulative IPC: 0.37769 (Simulation time: 0 hr 12 min 22 sec) 
Heartbeat CPU  0 instructions:  434000001 cycles:  990813700 heartbeat IPC: 0.37876 cumulative IPC: 0.37769 (Simulation time: 0 hr 12 min 24 sec) 
Heartbeat CPU  0 instructions:  435000000 cycles:  993516808 heartbeat IPC: 0.36994 cumulative IPC: 0.37767 (Simulation time: 0 hr 12 min 25 sec) 
Heartbeat CPU  0 instructions:  436000000 cycles:  996260583 heartbeat IPC: 0.36446 cumulative IPC: 0.37763 (Simulation time: 0 hr 12 min 27 sec) 
Heartbeat CPU  0 instructions:  437000000 cycles:  998901126 heartbeat IPC: 0.37871 cumulative IPC: 0.37763 (Simulation time: 0 hr 12 min 29 sec) 
Heartbeat CPU  0 instructions:  438000000 cycles: 1001665875 heartbeat IPC: 0.36170 cumulative IPC: 0.37758 (Simulation time: 0 hr 12 min 31 sec) 
Heartbeat CPU  0 instructions:  439000003 cycles: 1004424009 heartbeat IPC: 0.36257 cumulative IPC: 0.37754 (Simulation time: 0 hr 12 min 33 sec) 
Heartbeat CPU  0 instructions:  440000000 cycles: 1007152496 heartbeat IPC: 0.36650 cumulative IPC: 0.37750 (Simulation time: 0 hr 12 min 35 sec) 
Heartbeat CPU  0 instructions:  441000001 cycles: 1009890627 heartbeat IPC: 0.36521 cumulative IPC: 0.37747 (Simulation time: 0 hr 12 min 37 sec) 
Heartbeat CPU  0 instructions:  442000000 cycles: 1012592900 heartbeat IPC: 0.37006 cumulative IPC: 0.37744 (Simulation time: 0 hr 12 min 39 sec) 
Heartbeat CPU  0 instructions:  443000002 cycles: 1015133978 heartbeat IPC: 0.39353 cumulative IPC: 0.37749 (Simulation time: 0 hr 12 min 41 sec) 
Heartbeat CPU  0 instructions:  444000000 cycles: 1017761428 heartbeat IPC: 0.38060 cumulative IPC: 0.37750 (Simulation time: 0 hr 12 min 42 sec) 
Heartbeat CPU  0 instructions:  445000000 cycles: 1020540131 heartbeat IPC: 0.35988 cumulative IPC: 0.37745 (Simulation time: 0 hr 12 min 44 sec) 
Heartbeat CPU  0 instructions:  446000003 cycles: 1023281053 heartbeat IPC: 0.36484 cumulative IPC: 0.37741 (Simulation time: 0 hr 12 min 46 sec) 
Heartbeat CPU  0 instructions:  447000002 cycles: 1026010470 heartbeat IPC: 0.36638 cumulative IPC: 0.37737 (Simulation time: 0 hr 12 min 48 sec) 
Heartbeat CPU  0 instructions:  448000000 cycles: 1028406867 heartbeat IPC: 0.41729 cumulative IPC: 0.37748 (Simulation time: 0 hr 12 min 50 sec) 
Heartbeat CPU  0 instructions:  449000000 cycles: 1030502555 heartbeat IPC: 0.47717 cumulative IPC: 0.37770 (Simulation time: 0 hr 12 min 51 sec) 
Heartbeat CPU  0 instructions:  450000000 cycles: 1033150817 heartbeat IPC: 0.37761 cumulative IPC: 0.37770 (Simulation time: 0 hr 12 min 53 sec) 
Heartbeat CPU  0 instructions:  451000000 cycles: 1035855636 heartbeat IPC: 0.36971 cumulative IPC: 0.37768 (Simulation time: 0 hr 12 min 55 sec) 
Heartbeat CPU  0 instructions:  452000000 cycles: 1038540942 heartbeat IPC: 0.37240 cumulative IPC: 0.37767 (Simulation time: 0 hr 12 min 57 sec) 
Heartbeat CPU  0 instructions:  453000000 cycles: 1041191816 heartbeat IPC: 0.37723 cumulative IPC: 0.37766 (Simulation time: 0 hr 12 min 59 sec) 
Heartbeat CPU  0 instructions:  454000001 cycles: 1043908208 heartbeat IPC: 0.36814 cumulative IPC: 0.37764 (Simulation time: 0 hr 13 min 1 sec) 
Heartbeat CPU  0 instructions:  455000000 cycles: 1046623369 heartbeat IPC: 0.36830 cumulative IPC: 0.37761 (Simulation time: 0 hr 13 min 3 sec) 
Heartbeat CPU  0 instructions:  456000000 cycles: 1049267104 heartbeat IPC: 0.37825 cumulative IPC: 0.37761 (Simulation time: 0 hr 13 min 4 sec) 
Heartbeat CPU  0 instructions:  457000003 cycles: 1052003406 heartbeat IPC: 0.36546 cumulative IPC: 0.37758 (Simulation time: 0 hr 13 min 6 sec) 
Heartbeat CPU  0 instructions:  458000003 cycles: 1054699720 heartbeat IPC: 0.37088 cumulative IPC: 0.37756 (Simulation time: 0 hr 13 min 8 sec) 
Heartbeat CPU  0 instructions:  459000001 cycles: 1057485799 heartbeat IPC: 0.35893 cumulative IPC: 0.37750 (Simulation time: 0 hr 13 min 10 sec) 
Heartbeat CPU  0 instructions:  460000000 cycles: 1060202642 heartbeat IPC: 0.36807 cumulative IPC: 0.37748 (Simulation time: 0 hr 13 min 12 sec) 
Heartbeat CPU  0 instructions:  461000002 cycles: 1062883709 heartbeat IPC: 0.37299 cumulative IPC: 0.37746 (Simulation time: 0 hr 13 min 14 sec) 
Heartbeat CPU  0 instructions:  462000003 cycles: 1065486468 heartbeat IPC: 0.38421 cumulative IPC: 0.37748 (Simulation time: 0 hr 13 min 16 sec) 
Heartbeat CPU  0 instructions:  463000001 cycles: 1067466859 heartbeat IPC: 0.50495 cumulative IPC: 0.37774 (Simulation time: 0 hr 13 min 17 sec) 
Heartbeat CPU  0 instructions:  464000000 cycles: 1070358411 heartbeat IPC: 0.34583 cumulative IPC: 0.37765 (Simulation time: 0 hr 13 min 19 sec) 
Heartbeat CPU  0 instructions:  465000001 cycles: 1073158975 heartbeat IPC: 0.35707 cumulative IPC: 0.37759 (Simulation time: 0 hr 13 min 21 sec) 
Heartbeat CPU  0 instructions:  466000000 cycles: 1075580779 heartbeat IPC: 0.41291 cumulative IPC: 0.37768 (Simulation time: 0 hr 13 min 23 sec) 
Heartbeat CPU  0 instructions:  467000000 cycles: 1078207297 heartbeat IPC: 0.38073 cumulative IPC: 0.37769 (Simulation time: 0 hr 13 min 25 sec) 
Heartbeat CPU  0 instructions:  468000000 cycles: 1080905779 heartbeat IPC: 0.37058 cumulative IPC: 0.37767 (Simulation time: 0 hr 13 min 26 sec) 
Heartbeat CPU  0 instructions:  469000001 cycles: 1083588599 heartbeat IPC: 0.37274 cumulative IPC: 0.37765 (Simulation time: 0 hr 13 min 28 sec) 
Heartbeat CPU  0 instructions:  470000001 cycles: 1086281116 heartbeat IPC: 0.37140 cumulative IPC: 0.37764 (Simulation time: 0 hr 13 min 30 sec) 
Heartbeat CPU  0 instructions:  471000000 cycles: 1088894417 heartbeat IPC: 0.38266 cumulative IPC: 0.37765 (Simulation time: 0 hr 13 min 32 sec) 
Heartbeat CPU  0 instructions:  472000000 cycles: 1091649509 heartbeat IPC: 0.36296 cumulative IPC: 0.37761 (Simulation time: 0 hr 13 min 34 sec) 
Heartbeat CPU  0 instructions:  473000002 cycles: 1094303912 heartbeat IPC: 0.37673 cumulative IPC: 0.37761 (Simulation time: 0 hr 13 min 36 sec) 
Heartbeat CPU  0 instructions:  474000001 cycles: 1097009314 heartbeat IPC: 0.36963 cumulative IPC: 0.37758 (Simulation time: 0 hr 13 min 38 sec) 
Heartbeat CPU  0 instructions:  475000002 cycles: 1099760343 heartbeat IPC: 0.36350 cumulative IPC: 0.37754 (Simulation time: 0 hr 13 min 39 sec) 
Heartbeat CPU  0 instructions:  476000000 cycles: 1102453887 heartbeat IPC: 0.37126 cumulative IPC: 0.37753 (Simulation time: 0 hr 13 min 41 sec) 
Heartbeat CPU  0 instructions:  477000001 cycles: 1105224702 heartbeat IPC: 0.36090 cumulative IPC: 0.37748 (Simulation time: 0 hr 13 min 43 sec) 
Heartbeat CPU  0 instructions:  478000001 cycles: 1107921359 heartbeat IPC: 0.37083 cumulative IPC: 0.37746 (Simulation time: 0 hr 13 min 45 sec) 
Heartbeat CPU  0 instructions:  479000002 cycles: 1110588525 heartbeat IPC: 0.37493 cumulative IPC: 0.37746 (Simulation time: 0 hr 13 min 47 sec) 
Heartbeat CPU  0 instructions:  480000000 cycles: 1113359115 heartbeat IPC: 0.36093 cumulative IPC: 0.37741 (Simulation time: 0 hr 13 min 49 sec) 
Heartbeat CPU  0 instructions:  481000000 cycles: 1116142909 heartbeat IPC: 0.35922 cumulative IPC: 0.37736 (Simulation time: 0 hr 13 min 51 sec) 
Heartbeat CPU  0 instructions:  482000002 cycles: 1118093774 heartbeat IPC: 0.51259 cumulative IPC: 0.37762 (Simulation time: 0 hr 13 min 52 sec) 
Heartbeat CPU  0 instructions:  483000003 cycles: 1120888307 heartbeat IPC: 0.35784 cumulative IPC: 0.37757 (Simulation time: 0 hr 13 min 54 sec) 
Heartbeat CPU  0 instructions:  484000000 cycles: 1123640471 heartbeat IPC: 0.36335 cumulative IPC: 0.37753 (Simulation time: 0 hr 13 min 56 sec) 
Heartbeat CPU  0 instructions:  485000001 cycles: 1126467280 heartbeat IPC: 0.35376 cumulative IPC: 0.37746 (Simulation time: 0 hr 13 min 58 sec) 
Heartbeat CPU  0 instructions:  486000000 cycles: 1129166776 heartbeat IPC: 0.37044 cumulative IPC: 0.37744 (Simulation time: 0 hr 14 min 0 sec) 
Heartbeat CPU  0 instructions:  487000002 cycles: 1131537830 heartbeat IPC: 0.42175 cumulative IPC: 0.37755 (Simulation time: 0 hr 14 min 2 sec) 
Heartbeat CPU  0 instructions:  488000000 cycles: 1134341125 heartbeat IPC: 0.35672 cumulative IPC: 0.37749 (Simulation time: 0 hr 14 min 3 sec) 
Heartbeat CPU  0 instructions:  489000001 cycles: 1137128689 heartbeat IPC: 0.35874 cumulative IPC: 0.37744 (Simulation time: 0 hr 14 min 5 sec) 
Heartbeat CPU  0 instructions:  490000001 cycles: 1139758193 heartbeat IPC: 0.38030 cumulative IPC: 0.37745 (Simulation time: 0 hr 14 min 7 sec) 
Heartbeat CPU  0 instructions:  491000001 cycles: 1142442087 heartbeat IPC: 0.37259 cumulative IPC: 0.37743 (Simulation time: 0 hr 14 min 9 sec) 
Heartbeat CPU  0 instructions:  492000000 cycles: 1145108647 heartbeat IPC: 0.37501 cumulative IPC: 0.37743 (Simulation time: 0 hr 14 min 11 sec) 
Heartbeat CPU  0 instructions:  493000000 cycles: 1147868555 heartbeat IPC: 0.36233 cumulative IPC: 0.37739 (Simulation time: 0 hr 14 min 13 sec) 
Heartbeat CPU  0 instructions:  494000000 cycles: 1150564653 heartbeat IPC: 0.37091 cumulative IPC: 0.37737 (Simulation time: 0 hr 14 min 15 sec) 
Heartbeat CPU  0 instructions:  495000000 cycles: 1153360481 heartbeat IPC: 0.35768 cumulative IPC: 0.37732 (Simulation time: 0 hr 14 min 17 sec) 
Heartbeat CPU  0 instructions:  496000000 cycles: 1156064816 heartbeat IPC: 0.36978 cumulative IPC: 0.37730 (Simulation time: 0 hr 14 min 18 sec) 
Heartbeat CPU  0 instructions:  497000000 cycles: 1158741120 heartbeat IPC: 0.37365 cumulative IPC: 0.37729 (Simulation time: 0 hr 14 min 20 sec) 
Heartbeat CPU  0 instructions:  498000001 cycles: 1160982357 heartbeat IPC: 0.44618 cumulative IPC: 0.37744 (Simulation time: 0 hr 14 min 22 sec) 
Heartbeat CPU  0 instructions:  499000001 cycles: 1163337965 heartbeat IPC: 0.42452 cumulative IPC: 0.37754 (Simulation time: 0 hr 14 min 24 sec) 
Heartbeat CPU  0 instructions:  500000000 cycles: 1165728360 heartbeat IPC: 0.41834 cumulative IPC: 0.37763 (Simulation time: 0 hr 14 min 26 sec) 
Heartbeat CPU  0 instructions:  501000001 cycles: 1168375156 heartbeat IPC: 0.37782 cumulative IPC: 0.37763 (Simulation time: 0 hr 14 min 27 sec) 
Heartbeat CPU  0 instructions:  502000003 cycles: 1171164511 heartbeat IPC: 0.35851 cumulative IPC: 0.37758 (Simulation time: 0 hr 14 min 29 sec) 
Heartbeat CPU  0 instructions:  503000000 cycles: 1172804733 heartbeat IPC: 0.60967 cumulative IPC: 0.37794 (Simulation time: 0 hr 14 min 31 sec) 
Heartbeat CPU  0 instructions:  504000000 cycles: 1173732358 heartbeat IPC: 1.07802 cumulative IPC: 0.37855 (Simulation time: 0 hr 14 min 33 sec) 
Heartbeat CPU  0 instructions:  505000000 cycles: 1174348526 heartbeat IPC: 1.62293 cumulative IPC: 0.37927 (Simulation time: 0 hr 14 min 35 sec) 
Heartbeat CPU  0 instructions:  506000000 cycles: 1175120017 heartbeat IPC: 1.29619 cumulative IPC: 0.37993 (Simulation time: 0 hr 14 min 37 sec) 
Heartbeat CPU  0 instructions:  507000002 cycles: 1175971419 heartbeat IPC: 1.17454 cumulative IPC: 0.38056 (Simulation time: 0 hr 14 min 39 sec) 
Heartbeat CPU  0 instructions:  508000000 cycles: 1177394943 heartbeat IPC: 0.70248 cumulative IPC: 0.38099 (Simulation time: 0 hr 14 min 41 sec) 
Heartbeat CPU  0 instructions:  509000003 cycles: 1178987749 heartbeat IPC: 0.62782 cumulative IPC: 0.38136 (Simulation time: 0 hr 14 min 44 sec) 
Heartbeat CPU  0 instructions:  510000002 cycles: 1180573214 heartbeat IPC: 0.63073 cumulative IPC: 0.38172 (Simulation time: 0 hr 14 min 46 sec) 
Heartbeat CPU  0 instructions:  511000001 cycles: 1182442923 heartbeat IPC: 0.53484 cumulative IPC: 0.38199 (Simulation time: 0 hr 14 min 49 sec) 
Heartbeat CPU  0 instructions:  512000000 cycles: 1184763943 heartbeat IPC: 0.43084 cumulative IPC: 0.38210 (Simulation time: 0 hr 14 min 52 sec) 
Heartbeat CPU  0 instructions:  513000002 cycles: 1187107461 heartbeat IPC: 0.42671 cumulative IPC: 0.38219 (Simulation time: 0 hr 14 min 55 sec) 
Heartbeat CPU  0 instructions:  514000001 cycles: 1188585061 heartbeat IPC: 0.67677 cumulative IPC: 0.38259 (Simulation time: 0 hr 14 min 57 sec) 
Heartbeat CPU  0 instructions:  515000002 cycles: 1189428701 heartbeat IPC: 1.18534 cumulative IPC: 0.38322 (Simulation time: 0 hr 14 min 59 sec) 
Heartbeat CPU  0 instructions:  516000000 cycles: 1190252642 heartbeat IPC: 1.21368 cumulative IPC: 0.38385 (Simulation time: 0 hr 15 min 1 sec) 
Heartbeat CPU  0 instructions:  517000001 cycles: 1191077363 heartbeat IPC: 1.21253 cumulative IPC: 0.38448 (Simulation time: 0 hr 15 min 3 sec) 
Heartbeat CPU  0 instructions:  518000002 cycles: 1192649878 heartbeat IPC: 0.63592 cumulative IPC: 0.38485 (Simulation time: 0 hr 15 min 6 sec) 
Heartbeat CPU  0 instructions:  519000003 cycles: 1194277861 heartbeat IPC: 0.61426 cumulative IPC: 0.38519 (Simulation time: 0 hr 15 min 8 sec) 
Heartbeat CPU  0 instructions:  520000000 cycles: 1195866770 heartbeat IPC: 0.62936 cumulative IPC: 0.38555 (Simulation time: 0 hr 15 min 11 sec) 
Heartbeat CPU  0 instructions:  521000001 cycles: 1197953992 heartbeat IPC: 0.47911 cumulative IPC: 0.38572 (Simulation time: 0 hr 15 min 13 sec) 
Heartbeat CPU  0 instructions:  522000003 cycles: 1200298815 heartbeat IPC: 0.42647 cumulative IPC: 0.38581 (Simulation time: 0 hr 15 min 17 sec) 
Heartbeat CPU  0 instructions:  523000000 cycles: 1202561409 heartbeat IPC: 0.44197 cumulative IPC: 0.38593 (Simulation time: 0 hr 15 min 19 sec) 
Heartbeat CPU  0 instructions:  524000000 cycles: 1204730756 heartbeat IPC: 0.46097 cumulative IPC: 0.38608 (Simulation time: 0 hr 15 min 21 sec) 
Heartbeat CPU  0 instructions:  525000002 cycles: 1207287524 heartbeat IPC: 0.39112 cumulative IPC: 0.38609 (Simulation time: 0 hr 15 min 23 sec) 
Heartbeat CPU  0 instructions:  526000000 cycles: 1209588729 heartbeat IPC: 0.43455 cumulative IPC: 0.38619 (Simulation time: 0 hr 15 min 25 sec) 
Heartbeat CPU  0 instructions:  527000001 cycles: 1212366344 heartbeat IPC: 0.36002 cumulative IPC: 0.38612 (Simulation time: 0 hr 15 min 27 sec) 
Heartbeat CPU  0 instructions:  528000000 cycles: 1214633422 heartbeat IPC: 0.44110 cumulative IPC: 0.38624 (Simulation time: 0 hr 15 min 28 sec) 
Heartbeat CPU  0 instructions:  529000000 cycles: 1216595976 heartbeat IPC: 0.50954 cumulative IPC: 0.38645 (Simulation time: 0 hr 15 min 30 sec) 
Heartbeat CPU  0 instructions:  530000003 cycles: 1219410128 heartbeat IPC: 0.35535 cumulative IPC: 0.38637 (Simulation time: 0 hr 15 min 32 sec) 
Heartbeat CPU  0 instructions:  531000001 cycles: 1221827302 heartbeat IPC: 0.41371 cumulative IPC: 0.38643 (Simulation time: 0 hr 15 min 34 sec) 
Heartbeat CPU  0 instructions:  532000000 cycles: 1224288732 heartbeat IPC: 0.40627 cumulative IPC: 0.38648 (Simulation time: 0 hr 15 min 35 sec) 
Heartbeat CPU  0 instructions:  533000002 cycles: 1227033615 heartbeat IPC: 0.36431 cumulative IPC: 0.38642 (Simulation time: 0 hr 15 min 37 sec) 
Heartbeat CPU  0 instructions:  534000000 cycles: 1229393638 heartbeat IPC: 0.42372 cumulative IPC: 0.38650 (Simulation time: 0 hr 15 min 39 sec) 
Heartbeat CPU  0 instructions:  535000000 cycles: 1231489099 heartbeat IPC: 0.47722 cumulative IPC: 0.38667 (Simulation time: 0 hr 15 min 41 sec) 
Heartbeat CPU  0 instructions:  536000000 cycles: 1234065356 heartbeat IPC: 0.38816 cumulative IPC: 0.38667 (Simulation time: 0 hr 15 min 43 sec) 
Heartbeat CPU  0 instructions:  537000001 cycles: 1236440692 heartbeat IPC: 0.42099 cumulative IPC: 0.38675 (Simulation time: 0 hr 15 min 45 sec) 
Heartbeat CPU  0 instructions:  538000001 cycles: 1238964251 heartbeat IPC: 0.39627 cumulative IPC: 0.38677 (Simulation time: 0 hr 15 min 46 sec) 
Heartbeat CPU  0 instructions:  539000000 cycles: 1241466200 heartbeat IPC: 0.39969 cumulative IPC: 0.38680 (Simulation time: 0 hr 15 min 48 sec) 
Heartbeat CPU  0 instructions:  540000000 cycles: 1244113921 heartbeat IPC: 0.37768 cumulative IPC: 0.38677 (Simulation time: 0 hr 15 min 50 sec) 
Heartbeat CPU  0 instructions:  541000001 cycles: 1246597443 heartbeat IPC: 0.40265 cumulative IPC: 0.38681 (Simulation time: 0 hr 15 min 52 sec) 
Heartbeat CPU  0 instructions:  542000002 cycles: 1248944800 heartbeat IPC: 0.42601 cumulative IPC: 0.38689 (Simulation time: 0 hr 15 min 54 sec) 
Heartbeat CPU  0 instructions:  543000003 cycles: 1251523897 heartbeat IPC: 0.38773 cumulative IPC: 0.38689 (Simulation time: 0 hr 15 min 56 sec) 
Heartbeat CPU  0 instructions:  544000000 cycles: 1254072341 heartbeat IPC: 0.39240 cumulative IPC: 0.38690 (Simulation time: 0 hr 15 min 58 sec) 
Heartbeat CPU  0 instructions:  545000000 cycles: 1256273852 heartbeat IPC: 0.45423 cumulative IPC: 0.38703 (Simulation time: 0 hr 16 min 0 sec) 
Heartbeat CPU  0 instructions:  546000000 cycles: 1258585091 heartbeat IPC: 0.43267 cumulative IPC: 0.38712 (Simulation time: 0 hr 16 min 1 sec) 
Heartbeat CPU  0 instructions:  547000000 cycles: 1261032543 heartbeat IPC: 0.40859 cumulative IPC: 0.38717 (Simulation time: 0 hr 16 min 3 sec) 
Heartbeat CPU  0 instructions:  548000000 cycles: 1263686807 heartbeat IPC: 0.37675 cumulative IPC: 0.38715 (Simulation time: 0 hr 16 min 5 sec) 
Heartbeat CPU  0 instructions:  549000000 cycles: 1266273871 heartbeat IPC: 0.38654 cumulative IPC: 0.38714 (Simulation time: 0 hr 16 min 7 sec) 
Heartbeat CPU  0 instructions:  550000001 cycles: 1268875053 heartbeat IPC: 0.38444 cumulative IPC: 0.38714 (Simulation time: 0 hr 16 min 9 sec) 
Heartbeat CPU  0 instructions:  551000001 cycles: 1271516009 heartbeat IPC: 0.37865 cumulative IPC: 0.38712 (Simulation time: 0 hr 16 min 10 sec) 
Heartbeat CPU  0 instructions:  552000000 cycles: 1274146722 heartbeat IPC: 0.38012 cumulative IPC: 0.38710 (Simulation time: 0 hr 16 min 12 sec) 
Heartbeat CPU  0 instructions:  553000002 cycles: 1276709923 heartbeat IPC: 0.39014 cumulative IPC: 0.38711 (Simulation time: 0 hr 16 min 14 sec) 
Heartbeat CPU  0 instructions:  554000000 cycles: 1279365234 heartbeat IPC: 0.37660 cumulative IPC: 0.38709 (Simulation time: 0 hr 16 min 16 sec) 
Heartbeat CPU  0 instructions:  555000000 cycles: 1282118023 heartbeat IPC: 0.36327 cumulative IPC: 0.38703 (Simulation time: 0 hr 16 min 18 sec) 
Heartbeat CPU  0 instructions:  556000000 cycles: 1284627964 heartbeat IPC: 0.39842 cumulative IPC: 0.38705 (Simulation time: 0 hr 16 min 20 sec) 
Heartbeat CPU  0 instructions:  557000000 cycles: 1287352572 heartbeat IPC: 0.36703 cumulative IPC: 0.38701 (Simulation time: 0 hr 16 min 22 sec) 
Heartbeat CPU  0 instructions:  558000000 cycles: 1289977116 heartbeat IPC: 0.38102 cumulative IPC: 0.38700 (Simulation time: 0 hr 16 min 24 sec) 
Heartbeat CPU  0 instructions:  559000000 cycles: 1292707843 heartbeat IPC: 0.36620 cumulative IPC: 0.38695 (Simulation time: 0 hr 16 min 26 sec) 
Heartbeat CPU  0 instructions:  560000000 cycles: 1295421607 heartbeat IPC: 0.36849 cumulative IPC: 0.38691 (Simulation time: 0 hr 16 min 27 sec) 
Heartbeat CPU  0 instructions:  561000001 cycles: 1298062975 heartbeat IPC: 0.37859 cumulative IPC: 0.38689 (Simulation time: 0 hr 16 min 29 sec) 
Heartbeat CPU  0 instructions:  562000000 cycles: 1300736508 heartbeat IPC: 0.37404 cumulative IPC: 0.38686 (Simulation time: 0 hr 16 min 31 sec) 
Heartbeat CPU  0 instructions:  563000001 cycles: 1303503823 heartbeat IPC: 0.36136 cumulative IPC: 0.38680 (Simulation time: 0 hr 16 min 33 sec) 
Heartbeat CPU  0 instructions:  564000000 cycles: 1305987752 heartbeat IPC: 0.40259 cumulative IPC: 0.38683 (Simulation time: 0 hr 16 min 35 sec) 
Heartbeat CPU  0 instructions:  565000002 cycles: 1308690922 heartbeat IPC: 0.36994 cumulative IPC: 0.38679 (Simulation time: 0 hr 16 min 37 sec) 
Heartbeat CPU  0 instructions:  566000000 cycles: 1311291013 heartbeat IPC: 0.38460 cumulative IPC: 0.38679 (Simulation time: 0 hr 16 min 39 sec) 
Heartbeat CPU  0 instructions:  567000003 cycles: 1313937841 heartbeat IPC: 0.37781 cumulative IPC: 0.38677 (Simulation time: 0 hr 16 min 41 sec) 
Heartbeat CPU  0 instructions:  568000000 cycles: 1316602106 heartbeat IPC: 0.37534 cumulative IPC: 0.38674 (Simulation time: 0 hr 16 min 43 sec) 
Heartbeat CPU  0 instructions:  569000002 cycles: 1319401177 heartbeat IPC: 0.35726 cumulative IPC: 0.38668 (Simulation time: 0 hr 16 min 44 sec) 
Heartbeat CPU  0 instructions:  570000001 cycles: 1322120281 heartbeat IPC: 0.36777 cumulative IPC: 0.38663 (Simulation time: 0 hr 16 min 46 sec) 
Heartbeat CPU  0 instructions:  571000001 cycles: 1324828932 heartbeat IPC: 0.36919 cumulative IPC: 0.38660 (Simulation time: 0 hr 16 min 48 sec) 
Heartbeat CPU  0 instructions:  572000000 cycles: 1327604083 heartbeat IPC: 0.36034 cumulative IPC: 0.38654 (Simulation time: 0 hr 16 min 50 sec) 
Heartbeat CPU  0 instructions:  573000000 cycles: 1330336826 heartbeat IPC: 0.36593 cumulative IPC: 0.38649 (Simulation time: 0 hr 16 min 52 sec) 
Heartbeat CPU  0 instructions:  574000000 cycles: 1333106279 heartbeat IPC: 0.36108 cumulative IPC: 0.38643 (Simulation time: 0 hr 16 min 54 sec) 
Heartbeat CPU  0 instructions:  575000002 cycles: 1335874911 heartbeat IPC: 0.36119 cumulative IPC: 0.38638 (Simulation time: 0 hr 16 min 56 sec) 
Heartbeat CPU  0 instructions:  576000000 cycles: 1338562025 heartbeat IPC: 0.37215 cumulative IPC: 0.38634 (Simulation time: 0 hr 16 min 58 sec) 
Heartbeat CPU  0 instructions:  577000002 cycles: 1341280406 heartbeat IPC: 0.36787 cumulative IPC: 0.38630 (Simulation time: 0 hr 17 min 0 sec) 
Heartbeat CPU  0 instructions:  578000001 cycles: 1343859816 heartbeat IPC: 0.38769 cumulative IPC: 0.38631 (Simulation time: 0 hr 17 min 2 sec) 
Heartbeat CPU  0 instructions:  579000002 cycles: 1346539145 heartbeat IPC: 0.37323 cumulative IPC: 0.38628 (Simulation time: 0 hr 17 min 3 sec) 
Heartbeat CPU  0 instructions:  580000000 cycles: 1349208332 heartbeat IPC: 0.37465 cumulative IPC: 0.38625 (Simulation time: 0 hr 17 min 5 sec) 
Heartbeat CPU  0 instructions:  581000003 cycles: 1351858017 heartbeat IPC: 0.37740 cumulative IPC: 0.38623 (Simulation time: 0 hr 17 min 7 sec) 
Heartbeat CPU  0 instructions:  582000001 cycles: 1354602883 heartbeat IPC: 0.36432 cumulative IPC: 0.38619 (Simulation time: 0 hr 17 min 9 sec) 
Heartbeat CPU  0 instructions:  583000000 cycles: 1357243565 heartbeat IPC: 0.37869 cumulative IPC: 0.38617 (Simulation time: 0 hr 17 min 11 sec) 
Heartbeat CPU  0 instructions:  584000000 cycles: 1359860132 heartbeat IPC: 0.38218 cumulative IPC: 0.38616 (Simulation time: 0 hr 17 min 13 sec) 
Heartbeat CPU  0 instructions:  585000002 cycles: 1362577371 heartbeat IPC: 0.36802 cumulative IPC: 0.38612 (Simulation time: 0 hr 17 min 15 sec) 
Heartbeat CPU  0 instructions:  586000000 cycles: 1365262015 heartbeat IPC: 0.37249 cumulative IPC: 0.38609 (Simulation time: 0 hr 17 min 17 sec) 
Heartbeat CPU  0 instructions:  587000000 cycles: 1367724929 heartbeat IPC: 0.40602 cumulative IPC: 0.38613 (Simulation time: 0 hr 17 min 19 sec) 
Heartbeat CPU  0 instructions:  588000000 cycles: 1370360041 heartbeat IPC: 0.37949 cumulative IPC: 0.38612 (Simulation time: 0 hr 17 min 21 sec) 
Heartbeat CPU  0 instructions:  589000002 cycles: 1372912026 heartbeat IPC: 0.39185 cumulative IPC: 0.38613 (Simulation time: 0 hr 17 min 22 sec) 
Heartbeat CPU  0 instructions:  590000000 cycles: 1375517214 heartbeat IPC: 0.38385 cumulative IPC: 0.38613 (Simulation time: 0 hr 17 min 24 sec) 
Heartbeat CPU  0 instructions:  591000000 cycles: 1377970146 heartbeat IPC: 0.40768 cumulative IPC: 0.38617 (Simulation time: 0 hr 17 min 26 sec) 
Heartbeat CPU  0 instructions:  592000000 cycles: 1380670138 heartbeat IPC: 0.37037 cumulative IPC: 0.38613 (Simulation time: 0 hr 17 min 28 sec) 
Heartbeat CPU  0 instructions:  593000001 cycles: 1383341345 heartbeat IPC: 0.37436 cumulative IPC: 0.38611 (Simulation time: 0 hr 17 min 30 sec) 
Heartbeat CPU  0 instructions:  594000000 cycles: 1385915464 heartbeat IPC: 0.38848 cumulative IPC: 0.38611 (Simulation time: 0 hr 17 min 32 sec) 
Heartbeat CPU  0 instructions:  595000002 cycles: 1388659324 heartbeat IPC: 0.36445 cumulative IPC: 0.38607 (Simulation time: 0 hr 17 min 34 sec) 
Heartbeat CPU  0 instructions:  596000000 cycles: 1391018884 heartbeat IPC: 0.42381 cumulative IPC: 0.38614 (Simulation time: 0 hr 17 min 35 sec) 
Heartbeat CPU  0 instructions:  597000000 cycles: 1393423403 heartbeat IPC: 0.41588 cumulative IPC: 0.38619 (Simulation time: 0 hr 17 min 37 sec) 
Heartbeat CPU  0 instructions:  598000000 cycles: 1395904210 heartbeat IPC: 0.40309 cumulative IPC: 0.38623 (Simulation time: 0 hr 17 min 39 sec) 
Heartbeat CPU  0 instructions:  599000001 cycles: 1398576236 heartbeat IPC: 0.37425 cumulative IPC: 0.38620 (Simulation time: 0 hr 17 min 41 sec) 
Heartbeat CPU  0 instructions:  600000000 cycles: 1401166682 heartbeat IPC: 0.38603 cumulative IPC: 0.38620 (Simulation time: 0 hr 17 min 43 sec) 
Finished CPU 0 instructions: 500000000 cycles: 1294666321 cumulative IPC: 0.38620 (Simulation time: 0 hr 17 min 43 sec) 

ChampSim completed all CPUs

[ROI Statistics]
Core_0_instructions 500000000
Core_0_cycles 1294666321
Core_0_IPC 0.38620

Core_0_branch_prediction_accuracy 85.44512
Core_0_branch_MPKI 23.17008
Core_0_average_ROB_occupancy_at_mispredict 40.38659

Core_0_L1D_total_access 157621919
Core_0_L1D_total_hit 155554489
Core_0_L1D_total_miss 2067430
Core_0_L1D_loads 90302423
Core_0_L1D_load_hit 89589792
Core_0_L1D_load_miss 712631
Core_0_L1D_RFOs 67319496
Core_0_L1D_RFO_hit 65964697
Core_0_L1D_RFO_miss 1354799
Core_0_L1D_prefetches 0
Core_0_L1D_prefetch_hit 0
Core_0_L1D_prefetch_miss 0
Core_0_L1D_writebacks 0
Core_0_L1D_writeback_hit 0
Core_0_L1D_writeback_miss 0
Core_0_L1D_prefetch_requested 0
Core_0_L1D_prefetch_dropped 0
Core_0_L1D_prefetch_issued 0
Core_0_L1D_prefetch_filled 0
Core_0_L1D_prefetch_useful 0
Core_0_L1D_prefetch_useless 0
Core_0_L1D_prefetch_late 0
Core_0_L1D_average_miss_latency 239.25466

Core_0_L1D_rq_access 127065434
Core_0_L1D_rq_forward 0
Core_0_L1D_rq_merged 36629686
Core_0_L1D_rq_to_cache 90435455
Core_0_L1D_rq_full 0

Core_0_L1D_wq_access 71549319
Core_0_L1D_wq_forward 293
Core_0_L1D_wq_merged 408571
Core_0_L1D_wq_to_cache 71140748
Core_0_L1D_wq_full 18916459

Core_0_L1D_pq_access 0
Core_0_L1D_pq_forward 0
Core_0_L1D_pq_merged 0
Core_0_L1D_pq_to_cache 0
Core_0_L1D_pq_full 0

Core_0_L1D_acc_epochs 1362752
Core_0_L1D_acc_level_0 1362752
Core_0_L1D_acc_level_1 0
Core_0_L1D_acc_level_2 0
Core_0_L1D_acc_level_3 0
Core_0_L1D_acc_level_4 0
Core_0_L1D_acc_level_5 0
Core_0_L1D_acc_level_6 0
Core_0_L1D_acc_level_7 0
Core_0_L1D_acc_level_8 0
Core_0_L1D_acc_level_9 0

Core_0_L1I_total_access 98639753
Core_0_L1I_total_hit 97020193
Core_0_L1I_total_miss 1619560
Core_0_L1I_loads 98639753
Core_0_L1I_load_hit 97020193
Core_0_L1I_load_miss 1619560
Core_0_L1I_RFOs 0
Core_0_L1I_RFO_hit 0
Core_0_L1I_RFO_miss 0
Core_0_L1I_prefetches 0
Core_0_L1I_prefetch_hit 0
Core_0_L1I_prefetch_miss 0
Core_0_L1I_writebacks 0
Core_0_L1I_writeback_hit 0
Core_0_L1I_writeback_miss 0
Core_0_L1I_prefetch_requested 0
Core_0_L1I_prefetch_dropped 0
Core_0_L1I_prefetch_issued 0
Core_0_L1I_prefetch_filled 0
Core_0_L1I_prefetch_useful 0
Core_0_L1I_prefetch_useless 0
Core_0_L1I_prefetch_late 0
Core_0_L1I_average_miss_latency 12.20940

Core_0_L1I_rq_access 499999979
Core_0_L1I_rq_forward 0
Core_0_L1I_rq_merged 400780031
Core_0_L1I_rq_to_cache 99219948
Core_0_L1I_rq_full 0

Core_0_L1I_wq_access 0
Core_0_L1I_wq_forward 0
Core_0_L1I_wq_merged 0
Core_0_L1I_wq_to_cache 0
Core_0_L1I_wq_full 0

Core_0_L1I_pq_access 0
Core_0_L1I_pq_forward 0
Core_0_L1I_pq_merged 0
Core_0_L1I_pq_to_cache 0
Core_0_L1I_pq_full 0

Core_0_L1I_acc_epochs 1362752
Core_0_L1I_acc_level_0 1362752
Core_0_L1I_acc_level_1 0
Core_0_L1I_acc_level_2 0
Core_0_L1I_acc_level_3 0
Core_0_L1I_acc_level_4 0
Core_0_L1I_acc_level_5 0
Core_0_L1I_acc_level_6 0
Core_0_L1I_acc_level_7 0
Core_0_L1I_acc_level_8 0
Core_0_L1I_acc_level_9 0

Core_0_L2C_total_access 5774185
Core_0_L2C_total_hit 4524373
Core_0_L2C_total_miss 1249812
Core_0_L2C_loads 2332185
Core_0_L2C_load_hit 2108963
Core_0_L2C_load_miss 223222
Core_0_L2C_RFOs 1354772
Core_0_L2C_RFO_hit 531008
Core_0_L2C_RFO_miss 823764
Core_0_L2C_prefetches 491958
Core_0_L2C_prefetch_hit 292142
Core_0_L2C_prefetch_miss 199816
Core_0_L2C_writebacks 1595270
Core_0_L2C_writeback_hit 1592260
Core_0_L2C_writeback_miss 3010
Core_0_L2C_prefetch_requested 1346030
Core_0_L2C_prefetch_dropped 0
Core_0_L2C_prefetch_issued 1346030
Core_0_L2C_prefetch_filled 287103
Core_0_L2C_prefetch_useful 218885
Core_0_L2C_prefetch_useless 68026
Core_0_L2C_prefetch_late 3068
Core_0_L2C_average_miss_latency 390.26769

Core_0_L2C_rq_access 3686990
Core_0_L2C_rq_forward 0
Core_0_L2C_rq_merged 0
Core_0_L2C_rq_to_cache 3686957
Core_0_L2C_rq_full 0

Core_0_L2C_wq_access 1595270
Core_0_L2C_wq_forward 33
Core_0_L2C_wq_merged 0
Core_0_L2C_wq_to_cache 1595270
Core_0_L2C_wq_full 0

Core_0_L2C_pq_access 1346030
Core_0_L2C_pq_forward 0
Core_0_L2C_pq_merged 0
Core_0_L2C_pq_to_cache 1346030
Core_0_L2C_pq_full 0

Core_0_L2C_acc_epochs 1362752
Core_0_L2C_acc_level_0 1315039
Core_0_L2C_acc_level_1 15208
Core_0_L2C_acc_level_2 12472
Core_0_L2C_acc_level_3 2389
Core_0_L2C_acc_level_4 1208
Core_0_L2C_acc_level_5 9765
Core_0_L2C_acc_level_6 897
Core_0_L2C_acc_level_7 842
Core_0_L2C_acc_level_8 550
Core_0_L2C_acc_level_9 4382

Core_0_LLC_total_access 2794601
Core_0_LLC_total_hit 773041
Core_0_LLC_total_miss 2021560
Core_0_LLC_loads 220307
Core_0_LLC_load_hit 107401
Core_0_LLC_load_miss 112906
Core_0_LLC_RFOs 823751
Core_0_LLC_RFO_hit 84015
Core_0_LLC_RFO_miss 739736
Core_0_LLC_prefetches 768581
Core_0_LLC_prefetch_hit 298150
Core_0_LLC_prefetch_miss 470431
Core_0_LLC_writebacks 981962
Core_0_LLC_writeback_hit 283475
Core_0_LLC_writeback_miss 698487
Core_0_LLC_prefetch_requested 0
Core_0_LLC_prefetch_dropped 0
Core_0_LLC_prefetch_issued 0
Core_0_LLC_prefetch_filled 565869
Core_0_LLC_prefetch_useful 47312
Core_0_LLC_prefetch_useless 497551
Core_0_LLC_prefetch_late 19
Core_0_LLC_average_miss_latency 264.70812

Core_0_LLC_rq_access 1044059
Core_0_LLC_rq_forward 0
Core_0_LLC_rq_merged 0
Core_0_LLC_rq_to_cache 1044058
Core_0_LLC_rq_full 0

Core_0_LLC_wq_access 981962
Core_0_LLC_wq_forward 2
Core_0_LLC_wq_merged 0
Core_0_LLC_wq_to_cache 981962
Core_0_LLC_wq_full 0

Core_0_LLC_pq_access 975545
Core_0_LLC_pq_forward 0
Core_0_LLC_pq_merged 0
Core_0_LLC_pq_to_cache 975544
Core_0_LLC_pq_full 0

Core_0_LLC_acc_epochs 1368327
Core_0_LLC_acc_level_0 1334068
Core_0_LLC_acc_level_1 20849
Core_0_LLC_acc_level_2 8306
Core_0_LLC_acc_level_3 673
Core_0_LLC_acc_level_4 34
Core_0_LLC_acc_level_5 3861
Core_0_LLC_acc_level_6 33
Core_0_LLC_acc_level_7 58
Core_0_LLC_acc_level_8 12
Core_0_LLC_acc_level_9 433

Core_0_major_page_fault 0
Core_0_minor_page_fault 6504

[Bingo] PHT Access: 224559
[Bingo] PHT Hit PC+Addr: 57219
[Bingo] PHT Hit PC+Offs: 146390
[Bingo] PHT Miss: 20950
[Bingo] Prefetch PC+Addr: 0
[Bingo] Prefetch PC+Offs: 0
[Bingo] Useful PC+Addr: 0
[Bingo] Useful PC+Offs: 0
[Bingo] Useless PC+Addr: 0
[Bingo] Useless PC+Offs: 0
[Bingo] L1 Prefetch per Region: 0.00000
[Bingo] L2 Prefetch per Region: 4.18466
[Bingo] L3 Prefetch per Region: 3.44750
[Bingo] No Prefetch per Region: 24.36784
[Bingo] Number of Voters Mean: 6.23140
[Bingo] Number of Voters SD: 3.25675

Channel_0_RQ_row_buffer_hit 441708
Channel_0_RQ_row_buffer_miss 881364
Channel_0_WQ_row_buffer_hit 290144
Channel_0_WQ_row_buffer_miss 584282
Channel_0_WQ_full 1365344
Channel_0_dbus_congested 1031432

avg_congested_cycle 4

DRAM_bw_pochs 5473308
DRAM_bw_level_0 5400114
DRAM_bw_level_1 64927
DRAM_bw_level_2 4063
DRAM_bw_level_3 4204
