*************************************************
   ChampSim Multicore Out-of-Order Simulator
   Last compiled: Dec 11 2024 17:59:53
*************************************************
parsing config file: /home/functionmain/桌面/Pythia/config/nopref.ini

trace_0 /home/functionmain/桌面/Pythia/traces/450.soplex-247B.champsimtrace.xz
adding L2C_PREFETCHER: NONE
Initialize SHIP state
warmup_instructions 100000000
simulation_instructions 500000000
champsim_seed 223
measure_ipc 0
measure_ipc_epoch 1000
measure_dram_bw 1
measure_dram_bw_epoch 256
measure_cache_acc 1
measure_cache_acc_epoch 1024
l1d_perfect 0
l2c_perfect 0
llc_perfect 0
l1d_semi_perfect 0
l2c_semi_perfect 0
llc_semi_perfect 0
semi_perfect_cache_page_buffer_size 64

num_cpus 1
cpu_freq 4000
dram_io_freq 9600
page_size 4096
block_size 64
max_read_per_cycle 8
max_fill_per_cycle 1
dram_channels 1
log2_dram_channels 0
dram_ranks 1
dram_banks 8
dram_rows 65536
dram_columns 128
dram_row_size 8
dram_size 4096
dram_pages 1048576

fetch_width 6
decode_width 6
exec_width 4
lq_width 2
sq_width 2
retire_width 4
scheduler_size 128
branch_mispredict_penalty 20
rob_size 256
lq_size 72
sq_size 56
num_instr_destinations_sparc 4
num_instr_destinations 2
num_instr_sources 4

itlb_set 16
itlb_way 8
itlb_rq_size 16
itlb_wq_size 16
itlb_pq_size 0
itlb_mshr_size 8
itlb_latency 1

dtlb_set 16
dtlb_way 4
dtlb_rq_size 16
dtlb_wq_size 16
dtlb_pq_size 0
dtlb_mshr_size 8
dtlb_latency 1

stlb_set 128
stlb_way 12
stlb_rq_size 32
stlb_wq_size 32
stlb_pq_size 0
stlb_mshr_size 16
stlb_latency 8

l1i_size 32
l1i_set 64
l1i_way 8
l1i_rq_size 64
l1i_wq_size 64
l1i_pq_size 8
l1i_mshr_size 8
l1i_latency 1

l1d_size 32
l1d_set 64
l1d_way 8
l1d_rq_size 64
l1d_wq_size 64
l1d_pq_size 8
l1d_mshr_size 16
l1d_latency 4

l2c_size 256
l2c_set 512
l2c_way 8
l2c_rq_size 32
l2c_wq_size 32
l2c_pq_size 32
l2c_mshr_size 32
l2c_latency 10

llc_size 2048
llc_set 2048
llc_way 16
llc_rq_size 32
llc_wq_size 32
llc_pq_size 32
llc_mshr_size 64
llc_latency 20

dram_channel_width 8
dram_wq_size 64
dram_rq_size 64
tRP 15
tRCD 15
tCAS 12.5
dram_dbus_turn_around_time 30
dram_write_high_wm 56
dram_write_low_wm 48
min_dram_writes_per_switch 16
dram_mtps 9600
dram_dbus_return_time 3


Heartbeat CPU  0 instructions:    1000002 cycles:     760972 heartbeat IPC: 1.31411 cumulative IPC: 1.31411 (Simulation time: 0 hr 0 min 2 sec) 
Heartbeat CPU  0 instructions:    2000001 cycles:    1404421 heartbeat IPC: 1.55412 cumulative IPC: 1.42408 (Simulation time: 0 hr 0 min 3 sec) 
Heartbeat CPU  0 instructions:    3000001 cycles:    2129782 heartbeat IPC: 1.37862 cumulative IPC: 1.40860 (Simulation time: 0 hr 0 min 5 sec) 
Heartbeat CPU  0 instructions:    4000000 cycles:    2670861 heartbeat IPC: 1.84816 cumulative IPC: 1.49764 (Simulation time: 0 hr 0 min 6 sec) 
Heartbeat CPU  0 instructions:    5000000 cycles:    3577310 heartbeat IPC: 1.10321 cumulative IPC: 1.39770 (Simulation time: 0 hr 0 min 8 sec) 
Heartbeat CPU  0 instructions:    6000001 cycles:    4470442 heartbeat IPC: 1.11966 cumulative IPC: 1.34215 (Simulation time: 0 hr 0 min 10 sec) 
Heartbeat CPU  0 instructions:    7000000 cycles:    5269653 heartbeat IPC: 1.25123 cumulative IPC: 1.32836 (Simulation time: 0 hr 0 min 11 sec) 
Heartbeat CPU  0 instructions:    8000000 cycles:    5962943 heartbeat IPC: 1.44240 cumulative IPC: 1.34162 (Simulation time: 0 hr 0 min 13 sec) 
Heartbeat CPU  0 instructions:    9000001 cycles:    6579458 heartbeat IPC: 1.62202 cumulative IPC: 1.36789 (Simulation time: 0 hr 0 min 14 sec) 
Heartbeat CPU  0 instructions:   10000000 cycles:    7126934 heartbeat IPC: 1.82656 cumulative IPC: 1.40313 (Simulation time: 0 hr 0 min 15 sec) 
Heartbeat CPU  0 instructions:   11000003 cycles:    7725743 heartbeat IPC: 1.66999 cumulative IPC: 1.42381 (Simulation time: 0 hr 0 min 17 sec) 
Heartbeat CPU  0 instructions:   12000000 cycles:    8409830 heartbeat IPC: 1.46180 cumulative IPC: 1.42690 (Simulation time: 0 hr 0 min 18 sec) 
Heartbeat CPU  0 instructions:   13000000 cycles:    9293960 heartbeat IPC: 1.13106 cumulative IPC: 1.39876 (Simulation time: 0 hr 0 min 19 sec) 
Heartbeat CPU  0 instructions:   14000002 cycles:   10044642 heartbeat IPC: 1.33212 cumulative IPC: 1.39378 (Simulation time: 0 hr 0 min 20 sec) 
Heartbeat CPU  0 instructions:   15000000 cycles:   10657324 heartbeat IPC: 1.63216 cumulative IPC: 1.40748 (Simulation time: 0 hr 0 min 21 sec) 
Heartbeat CPU  0 instructions:   16000000 cycles:   11189493 heartbeat IPC: 1.87910 cumulative IPC: 1.42991 (Simulation time: 0 hr 0 min 23 sec) 
Heartbeat CPU  0 instructions:   17000000 cycles:   12004173 heartbeat IPC: 1.22748 cumulative IPC: 1.41617 (Simulation time: 0 hr 0 min 24 sec) 
Heartbeat CPU  0 instructions:   18000001 cycles:   12627594 heartbeat IPC: 1.60405 cumulative IPC: 1.42545 (Simulation time: 0 hr 0 min 26 sec) 
Heartbeat CPU  0 instructions:   19000001 cycles:   13169092 heartbeat IPC: 1.84673 cumulative IPC: 1.44277 (Simulation time: 0 hr 0 min 27 sec) 
Heartbeat CPU  0 instructions:   20000000 cycles:   13771492 heartbeat IPC: 1.66002 cumulative IPC: 1.45228 (Simulation time: 0 hr 0 min 29 sec) 
Heartbeat CPU  0 instructions:   21000001 cycles:   14436839 heartbeat IPC: 1.50298 cumulative IPC: 1.45461 (Simulation time: 0 hr 0 min 30 sec) 
Heartbeat CPU  0 instructions:   22000003 cycles:   15318660 heartbeat IPC: 1.13402 cumulative IPC: 1.43616 (Simulation time: 0 hr 0 min 31 sec) 
Heartbeat CPU  0 instructions:   23000001 cycles:   16087676 heartbeat IPC: 1.30036 cumulative IPC: 1.42967 (Simulation time: 0 hr 0 min 32 sec) 
Heartbeat CPU  0 instructions:   24000000 cycles:   16695692 heartbeat IPC: 1.64469 cumulative IPC: 1.43750 (Simulation time: 0 hr 0 min 33 sec) 
Heartbeat CPU  0 instructions:   25000000 cycles:   17242610 heartbeat IPC: 1.82843 cumulative IPC: 1.44990 (Simulation time: 0 hr 0 min 34 sec) 
Heartbeat CPU  0 instructions:   26000001 cycles:   18043489 heartbeat IPC: 1.24863 cumulative IPC: 1.44096 (Simulation time: 0 hr 0 min 36 sec) 
Heartbeat CPU  0 instructions:   27000003 cycles:   18635302 heartbeat IPC: 1.68973 cumulative IPC: 1.44886 (Simulation time: 0 hr 0 min 38 sec) 
Heartbeat CPU  0 instructions:   28000000 cycles:   19194780 heartbeat IPC: 1.78737 cumulative IPC: 1.45873 (Simulation time: 0 hr 0 min 39 sec) 
Heartbeat CPU  0 instructions:   29000002 cycles:   19753042 heartbeat IPC: 1.79128 cumulative IPC: 1.46813 (Simulation time: 0 hr 0 min 40 sec) 
Heartbeat CPU  0 instructions:   30000001 cycles:   20349924 heartbeat IPC: 1.67537 cumulative IPC: 1.47421 (Simulation time: 0 hr 0 min 42 sec) 
Heartbeat CPU  0 instructions:   31000002 cycles:   21221941 heartbeat IPC: 1.14677 cumulative IPC: 1.46075 (Simulation time: 0 hr 0 min 43 sec) 
Heartbeat CPU  0 instructions:   32000000 cycles:   22045360 heartbeat IPC: 1.21445 cumulative IPC: 1.45155 (Simulation time: 0 hr 0 min 44 sec) 
Heartbeat CPU  0 instructions:   33000000 cycles:   22648513 heartbeat IPC: 1.65795 cumulative IPC: 1.45705 (Simulation time: 0 hr 0 min 45 sec) 
Heartbeat CPU  0 instructions:   34000000 cycles:   23275179 heartbeat IPC: 1.59575 cumulative IPC: 1.46078 (Simulation time: 0 hr 0 min 46 sec) 
Heartbeat CPU  0 instructions:   35000002 cycles:   24001334 heartbeat IPC: 1.37712 cumulative IPC: 1.45825 (Simulation time: 0 hr 0 min 48 sec) 
Heartbeat CPU  0 instructions:   36000000 cycles:   24625303 heartbeat IPC: 1.60264 cumulative IPC: 1.46191 (Simulation time: 0 hr 0 min 49 sec) 
Heartbeat CPU  0 instructions:   37000002 cycles:   25166883 heartbeat IPC: 1.84645 cumulative IPC: 1.47019 (Simulation time: 0 hr 0 min 51 sec) 
Heartbeat CPU  0 instructions:   38000002 cycles:   25734445 heartbeat IPC: 1.76192 cumulative IPC: 1.47662 (Simulation time: 0 hr 0 min 52 sec) 
Heartbeat CPU  0 instructions:   39000000 cycles:   26324265 heartbeat IPC: 1.69543 cumulative IPC: 1.48152 (Simulation time: 0 hr 0 min 53 sec) 
Heartbeat CPU  0 instructions:   40000000 cycles:   27104383 heartbeat IPC: 1.28186 cumulative IPC: 1.47578 (Simulation time: 0 hr 0 min 55 sec) 
Heartbeat CPU  0 instructions:   41000001 cycles:   27973622 heartbeat IPC: 1.15043 cumulative IPC: 1.46567 (Simulation time: 0 hr 0 min 56 sec) 
Heartbeat CPU  0 instructions:   42000001 cycles:   28626940 heartbeat IPC: 1.53065 cumulative IPC: 1.46715 (Simulation time: 0 hr 0 min 57 sec) 
Heartbeat CPU  0 instructions:   43000000 cycles:   29279303 heartbeat IPC: 1.53289 cumulative IPC: 1.46861 (Simulation time: 0 hr 0 min 58 sec) 
Heartbeat CPU  0 instructions:   44000000 cycles:   29905652 heartbeat IPC: 1.59655 cumulative IPC: 1.47129 (Simulation time: 0 hr 0 min 59 sec) 
Heartbeat CPU  0 instructions:   45000000 cycles:   30651997 heartbeat IPC: 1.33986 cumulative IPC: 1.46809 (Simulation time: 0 hr 1 min 1 sec) 
Heartbeat CPU  0 instructions:   46000001 cycles:   31195091 heartbeat IPC: 1.84130 cumulative IPC: 1.47459 (Simulation time: 0 hr 1 min 2 sec) 
Heartbeat CPU  0 instructions:   47000000 cycles:   31755872 heartbeat IPC: 1.78323 cumulative IPC: 1.48004 (Simulation time: 0 hr 1 min 4 sec) 
Heartbeat CPU  0 instructions:   48000000 cycles:   32349526 heartbeat IPC: 1.68448 cumulative IPC: 1.48379 (Simulation time: 0 hr 1 min 5 sec) 
Heartbeat CPU  0 instructions:   49000001 cycles:   33095503 heartbeat IPC: 1.34053 cumulative IPC: 1.48056 (Simulation time: 0 hr 1 min 6 sec) 
Heartbeat CPU  0 instructions:   50000001 cycles:   33966540 heartbeat IPC: 1.14806 cumulative IPC: 1.47204 (Simulation time: 0 hr 1 min 7 sec) 
Heartbeat CPU  0 instructions:   51000003 cycles:   34662508 heartbeat IPC: 1.43685 cumulative IPC: 1.47133 (Simulation time: 0 hr 1 min 8 sec) 
Heartbeat CPU  0 instructions:   52000000 cycles:   35281276 heartbeat IPC: 1.61611 cumulative IPC: 1.47387 (Simulation time: 0 hr 1 min 10 sec) 
Heartbeat CPU  0 instructions:   53000000 cycles:   35861648 heartbeat IPC: 1.72303 cumulative IPC: 1.47790 (Simulation time: 0 hr 1 min 11 sec) 
Heartbeat CPU  0 instructions:   54000002 cycles:   36638829 heartbeat IPC: 1.28670 cumulative IPC: 1.47385 (Simulation time: 0 hr 1 min 13 sec) 
Heartbeat CPU  0 instructions:   55000001 cycles:   37223118 heartbeat IPC: 1.71148 cumulative IPC: 1.47758 (Simulation time: 0 hr 1 min 14 sec) 
Heartbeat CPU  0 instructions:   56000000 cycles:   37777567 heartbeat IPC: 1.80359 cumulative IPC: 1.48236 (Simulation time: 0 hr 1 min 16 sec) 
Heartbeat CPU  0 instructions:   57000002 cycles:   38372879 heartbeat IPC: 1.67979 cumulative IPC: 1.48542 (Simulation time: 0 hr 1 min 17 sec) 
Heartbeat CPU  0 instructions:   58000001 cycles:   39112384 heartbeat IPC: 1.35225 cumulative IPC: 1.48291 (Simulation time: 0 hr 1 min 18 sec) 
Heartbeat CPU  0 instructions:   59000001 cycles:   39985590 heartbeat IPC: 1.14521 cumulative IPC: 1.47553 (Simulation time: 0 hr 1 min 19 sec) 
Heartbeat CPU  0 instructions:   60000000 cycles:   40707042 heartbeat IPC: 1.38609 cumulative IPC: 1.47395 (Simulation time: 0 hr 1 min 20 sec) 
Heartbeat CPU  0 instructions:   61000003 cycles:   41336759 heartbeat IPC: 1.58802 cumulative IPC: 1.47568 (Simulation time: 0 hr 1 min 21 sec) 
Heartbeat CPU  0 instructions:   62000001 cycles:   41909333 heartbeat IPC: 1.74650 cumulative IPC: 1.47938 (Simulation time: 0 hr 1 min 23 sec) 
Heartbeat CPU  0 instructions:   63000000 cycles:   42708681 heartbeat IPC: 1.25102 cumulative IPC: 1.47511 (Simulation time: 0 hr 1 min 24 sec) 
Heartbeat CPU  0 instructions:   64000000 cycles:   43311408 heartbeat IPC: 1.65913 cumulative IPC: 1.47767 (Simulation time: 0 hr 1 min 26 sec) 
Heartbeat CPU  0 instructions:   65000003 cycles:   43863765 heartbeat IPC: 1.81043 cumulative IPC: 1.48186 (Simulation time: 0 hr 1 min 27 sec) 
Heartbeat CPU  0 instructions:   66000001 cycles:   44457752 heartbeat IPC: 1.68354 cumulative IPC: 1.48456 (Simulation time: 0 hr 1 min 29 sec) 
Heartbeat CPU  0 instructions:   67000000 cycles:   45153233 heartbeat IPC: 1.43785 cumulative IPC: 1.48384 (Simulation time: 0 hr 1 min 30 sec) 
Heartbeat CPU  0 instructions:   68000000 cycles:   46032071 heartbeat IPC: 1.13787 cumulative IPC: 1.47723 (Simulation time: 0 hr 1 min 31 sec) 
Heartbeat CPU  0 instructions:   69000001 cycles:   46786005 heartbeat IPC: 1.32638 cumulative IPC: 1.47480 (Simulation time: 0 hr 1 min 32 sec) 
Heartbeat CPU  0 instructions:   70000000 cycles:   47411367 heartbeat IPC: 1.59907 cumulative IPC: 1.47644 (Simulation time: 0 hr 1 min 33 sec) 
Heartbeat CPU  0 instructions:   71000002 cycles:   47948288 heartbeat IPC: 1.86248 cumulative IPC: 1.48076 (Simulation time: 0 hr 1 min 34 sec) 
Heartbeat CPU  0 instructions:   72000000 cycles:   48758483 heartbeat IPC: 1.23427 cumulative IPC: 1.47667 (Simulation time: 0 hr 1 min 36 sec) 
Heartbeat CPU  0 instructions:   73000001 cycles:   49373738 heartbeat IPC: 1.62534 cumulative IPC: 1.47852 (Simulation time: 0 hr 1 min 38 sec) 
Heartbeat CPU  0 instructions:   74000002 cycles:   49920398 heartbeat IPC: 1.82929 cumulative IPC: 1.48236 (Simulation time: 0 hr 1 min 39 sec) 
Heartbeat CPU  0 instructions:   75000003 cycles:   50522782 heartbeat IPC: 1.66007 cumulative IPC: 1.48448 (Simulation time: 0 hr 1 min 40 sec) 
Heartbeat CPU  0 instructions:   76000000 cycles:   51183435 heartbeat IPC: 1.51365 cumulative IPC: 1.48486 (Simulation time: 0 hr 1 min 42 sec) 
Heartbeat CPU  0 instructions:   77000001 cycles:   52059443 heartbeat IPC: 1.14154 cumulative IPC: 1.47908 (Simulation time: 0 hr 1 min 43 sec) 
Heartbeat CPU  0 instructions:   78000001 cycles:   52835549 heartbeat IPC: 1.28848 cumulative IPC: 1.47628 (Simulation time: 0 hr 1 min 44 sec) 
Heartbeat CPU  0 instructions:   79000003 cycles:   53457999 heartbeat IPC: 1.60656 cumulative IPC: 1.47780 (Simulation time: 0 hr 1 min 45 sec) 
Heartbeat CPU  0 instructions:   80000000 cycles:   54030044 heartbeat IPC: 1.74811 cumulative IPC: 1.48066 (Simulation time: 0 hr 1 min 46 sec) 
Heartbeat CPU  0 instructions:   81000001 cycles:   54819123 heartbeat IPC: 1.26730 cumulative IPC: 1.47759 (Simulation time: 0 hr 1 min 48 sec) 
Heartbeat CPU  0 instructions:   82000002 cycles:   55450645 heartbeat IPC: 1.58348 cumulative IPC: 1.47879 (Simulation time: 0 hr 1 min 49 sec) 
Heartbeat CPU  0 instructions:   83000003 cycles:   56014673 heartbeat IPC: 1.77296 cumulative IPC: 1.48175 (Simulation time: 0 hr 1 min 51 sec) 
Heartbeat CPU  0 instructions:   84000000 cycles:   56571058 heartbeat IPC: 1.79731 cumulative IPC: 1.48486 (Simulation time: 0 hr 1 min 52 sec) 
Heartbeat CPU  0 instructions:   85000001 cycles:   57167489 heartbeat IPC: 1.67664 cumulative IPC: 1.48686 (Simulation time: 0 hr 1 min 54 sec) 
Heartbeat CPU  0 instructions:   86000000 cycles:   58043073 heartbeat IPC: 1.14209 cumulative IPC: 1.48166 (Simulation time: 0 hr 1 min 55 sec) 
Heartbeat CPU  0 instructions:   87000000 cycles:   58872533 heartbeat IPC: 1.20560 cumulative IPC: 1.47777 (Simulation time: 0 hr 1 min 56 sec) 
Heartbeat CPU  0 instructions:   88000000 cycles:   59495548 heartbeat IPC: 1.60510 cumulative IPC: 1.47910 (Simulation time: 0 hr 1 min 57 sec) 
Heartbeat CPU  0 instructions:   89000003 cycles:   60148413 heartbeat IPC: 1.53171 cumulative IPC: 1.47967 (Simulation time: 0 hr 1 min 58 sec) 
Heartbeat CPU  0 instructions:   90000003 cycles:   60844453 heartbeat IPC: 1.43670 cumulative IPC: 1.47918 (Simulation time: 0 hr 1 min 59 sec) 
Heartbeat CPU  0 instructions:   91000001 cycles:   61538624 heartbeat IPC: 1.44056 cumulative IPC: 1.47875 (Simulation time: 0 hr 2 min 1 sec) 
Heartbeat CPU  0 instructions:   92000000 cycles:   62114396 heartbeat IPC: 1.73680 cumulative IPC: 1.48114 (Simulation time: 0 hr 2 min 2 sec) 
Heartbeat CPU  0 instructions:   93000000 cycles:   62661194 heartbeat IPC: 1.82883 cumulative IPC: 1.48417 (Simulation time: 0 hr 2 min 4 sec) 
Heartbeat CPU  0 instructions:   94000002 cycles:   63259087 heartbeat IPC: 1.67254 cumulative IPC: 1.48595 (Simulation time: 0 hr 2 min 5 sec) 
Heartbeat CPU  0 instructions:   95000003 cycles:   64099779 heartbeat IPC: 1.18950 cumulative IPC: 1.48206 (Simulation time: 0 hr 2 min 6 sec) 
Heartbeat CPU  0 instructions:   96000000 cycles:   64950258 heartbeat IPC: 1.17580 cumulative IPC: 1.47805 (Simulation time: 0 hr 2 min 7 sec) 
Heartbeat CPU  0 instructions:   97000002 cycles:   65587870 heartbeat IPC: 1.56836 cumulative IPC: 1.47893 (Simulation time: 0 hr 2 min 8 sec) 
Heartbeat CPU  0 instructions:   98000003 cycles:   66245807 heartbeat IPC: 1.51990 cumulative IPC: 1.47934 (Simulation time: 0 hr 2 min 10 sec) 
Heartbeat CPU  0 instructions:   99000002 cycles:   66899997 heartbeat IPC: 1.52861 cumulative IPC: 1.47982 (Simulation time: 0 hr 2 min 11 sec) 
Heartbeat CPU  0 instructions:  100000000 cycles:   67485474 heartbeat IPC: 1.70801 cumulative IPC: 1.48180 (Simulation time: 0 hr 2 min 13 sec) 

Warmup complete CPU  0 instructions:  100000002 cycles:   67485476 (Simulation time: 0 hr 2 min 13 sec) 

Heartbeat CPU  0 instructions:  101000001 cycles:   74879649 heartbeat IPC: 0.13524 cumulative IPC: 0.13524 (Simulation time: 0 hr 2 min 16 sec) 
Heartbeat CPU  0 instructions:  102000001 cycles:   79308763 heartbeat IPC: 0.22578 cumulative IPC: 0.16916 (Simulation time: 0 hr 2 min 19 sec) 
Heartbeat CPU  0 instructions:  103000001 cycles:   83578984 heartbeat IPC: 0.23418 cumulative IPC: 0.18641 (Simulation time: 0 hr 2 min 22 sec) 
Heartbeat CPU  0 instructions:  104000000 cycles:   88752899 heartbeat IPC: 0.19328 cumulative IPC: 0.18808 (Simulation time: 0 hr 2 min 26 sec) 
Heartbeat CPU  0 instructions:  105000003 cycles:   93165057 heartbeat IPC: 0.22665 cumulative IPC: 0.19471 (Simulation time: 0 hr 2 min 29 sec) 
Heartbeat CPU  0 instructions:  106000001 cycles:   97217778 heartbeat IPC: 0.24675 cumulative IPC: 0.20180 (Simulation time: 0 hr 2 min 32 sec) 
Heartbeat CPU  0 instructions:  107000003 cycles:  102046948 heartbeat IPC: 0.20708 cumulative IPC: 0.20254 (Simulation time: 0 hr 2 min 35 sec) 
Heartbeat CPU  0 instructions:  108000000 cycles:  106081206 heartbeat IPC: 0.24788 cumulative IPC: 0.20728 (Simulation time: 0 hr 2 min 38 sec) 
Heartbeat CPU  0 instructions:  109000000 cycles:  109957147 heartbeat IPC: 0.25800 cumulative IPC: 0.21191 (Simulation time: 0 hr 2 min 40 sec) 
Heartbeat CPU  0 instructions:  110000001 cycles:  112762311 heartbeat IPC: 0.35649 cumulative IPC: 0.22086 (Simulation time: 0 hr 2 min 43 sec) 
Heartbeat CPU  0 instructions:  111000003 cycles:  115796629 heartbeat IPC: 0.32956 cumulative IPC: 0.22769 (Simulation time: 0 hr 2 min 45 sec) 
Heartbeat CPU  0 instructions:  112000000 cycles:  117918565 heartbeat IPC: 0.47127 cumulative IPC: 0.23794 (Simulation time: 0 hr 2 min 48 sec) 
Heartbeat CPU  0 instructions:  113000002 cycles:  120098903 heartbeat IPC: 0.45865 cumulative IPC: 0.24709 (Simulation time: 0 hr 2 min 50 sec) 
Heartbeat CPU  0 instructions:  114000000 cycles:  122220595 heartbeat IPC: 0.47132 cumulative IPC: 0.25578 (Simulation time: 0 hr 2 min 52 sec) 
Heartbeat CPU  0 instructions:  115000000 cycles:  125358148 heartbeat IPC: 0.31872 cumulative IPC: 0.25919 (Simulation time: 0 hr 2 min 55 sec) 
Heartbeat CPU  0 instructions:  116000000 cycles:  129831172 heartbeat IPC: 0.22356 cumulative IPC: 0.25663 (Simulation time: 0 hr 2 min 58 sec) 
Heartbeat CPU  0 instructions:  117000000 cycles:  133679319 heartbeat IPC: 0.25987 cumulative IPC: 0.25682 (Simulation time: 0 hr 3 min 1 sec) 
Heartbeat CPU  0 instructions:  118000000 cycles:  136598512 heartbeat IPC: 0.34256 cumulative IPC: 0.26044 (Simulation time: 0 hr 3 min 3 sec) 
Heartbeat CPU  0 instructions:  119000000 cycles:  140116571 heartbeat IPC: 0.28425 cumulative IPC: 0.26160 (Simulation time: 0 hr 3 min 6 sec) 
Heartbeat CPU  0 instructions:  120000000 cycles:  142490639 heartbeat IPC: 0.42122 cumulative IPC: 0.26665 (Simulation time: 0 hr 3 min 9 sec) 
Heartbeat CPU  0 instructions:  121000001 cycles:  147537109 heartbeat IPC: 0.19816 cumulative IPC: 0.26233 (Simulation time: 0 hr 3 min 12 sec) 
Heartbeat CPU  0 instructions:  122000001 cycles:  151641430 heartbeat IPC: 0.24365 cumulative IPC: 0.26142 (Simulation time: 0 hr 3 min 15 sec) 
Heartbeat CPU  0 instructions:  123000000 cycles:  153831901 heartbeat IPC: 0.45652 cumulative IPC: 0.26637 (Simulation time: 0 hr 3 min 16 sec) 
Heartbeat CPU  0 instructions:  124000000 cycles:  155610831 heartbeat IPC: 0.56214 cumulative IPC: 0.27234 (Simulation time: 0 hr 3 min 18 sec) 
Heartbeat CPU  0 instructions:  125000000 cycles:  160253882 heartbeat IPC: 0.21538 cumulative IPC: 0.26949 (Simulation time: 0 hr 3 min 20 sec) 
Heartbeat CPU  0 instructions:  126000002 cycles:  163687214 heartbeat IPC: 0.29126 cumulative IPC: 0.27027 (Simulation time: 0 hr 3 min 23 sec) 
Heartbeat CPU  0 instructions:  127000002 cycles:  168024096 heartbeat IPC: 0.23058 cumulative IPC: 0.26855 (Simulation time: 0 hr 3 min 26 sec) 
Heartbeat CPU  0 instructions:  128000000 cycles:  171626103 heartbeat IPC: 0.27762 cumulative IPC: 0.26887 (Simulation time: 0 hr 3 min 28 sec) 
Heartbeat CPU  0 instructions:  129000000 cycles:  174254019 heartbeat IPC: 0.38053 cumulative IPC: 0.27162 (Simulation time: 0 hr 3 min 31 sec) 
Heartbeat CPU  0 instructions:  130000000 cycles:  180266812 heartbeat IPC: 0.16631 cumulative IPC: 0.26600 (Simulation time: 0 hr 3 min 35 sec) 
Heartbeat CPU  0 instructions:  131000000 cycles:  182660271 heartbeat IPC: 0.41781 cumulative IPC: 0.26916 (Simulation time: 0 hr 3 min 37 sec) 
Heartbeat CPU  0 instructions:  132000000 cycles:  184722035 heartbeat IPC: 0.48502 cumulative IPC: 0.27295 (Simulation time: 0 hr 3 min 38 sec) 
Heartbeat CPU  0 instructions:  133000000 cycles:  187388526 heartbeat IPC: 0.37502 cumulative IPC: 0.27522 (Simulation time: 0 hr 3 min 40 sec) 
Heartbeat CPU  0 instructions:  134000000 cycles:  191617483 heartbeat IPC: 0.23646 cumulative IPC: 0.27390 (Simulation time: 0 hr 3 min 42 sec) 
Heartbeat CPU  0 instructions:  135000002 cycles:  195991353 heartbeat IPC: 0.22863 cumulative IPC: 0.27236 (Simulation time: 0 hr 3 min 46 sec) 
Heartbeat CPU  0 instructions:  136000000 cycles:  198759826 heartbeat IPC: 0.36121 cumulative IPC: 0.27423 (Simulation time: 0 hr 3 min 48 sec) 
Heartbeat CPU  0 instructions:  137000000 cycles:  202224545 heartbeat IPC: 0.28862 cumulative IPC: 0.27460 (Simulation time: 0 hr 3 min 51 sec) 
Heartbeat CPU  0 instructions:  138000002 cycles:  205750721 heartbeat IPC: 0.28359 cumulative IPC: 0.27483 (Simulation time: 0 hr 3 min 54 sec) 
Heartbeat CPU  0 instructions:  139000000 cycles:  211073031 heartbeat IPC: 0.18789 cumulative IPC: 0.27161 (Simulation time: 0 hr 3 min 57 sec) 
Heartbeat CPU  0 instructions:  140000000 cycles:  213320557 heartbeat IPC: 0.44493 cumulative IPC: 0.27428 (Simulation time: 0 hr 3 min 58 sec) 
Heartbeat CPU  0 instructions:  141000000 cycles:  215276955 heartbeat IPC: 0.51114 cumulative IPC: 0.27742 (Simulation time: 0 hr 4 min 0 sec) 
Heartbeat CPU  0 instructions:  142000000 cycles:  218695933 heartbeat IPC: 0.29249 cumulative IPC: 0.27776 (Simulation time: 0 hr 4 min 2 sec) 
Heartbeat CPU  0 instructions:  143000003 cycles:  222291312 heartbeat IPC: 0.27814 cumulative IPC: 0.27777 (Simulation time: 0 hr 4 min 5 sec) 
Heartbeat CPU  0 instructions:  144000000 cycles:  226894840 heartbeat IPC: 0.21722 cumulative IPC: 0.27602 (Simulation time: 0 hr 4 min 8 sec) 
Heartbeat CPU  0 instructions:  145000002 cycles:  229820342 heartbeat IPC: 0.34182 cumulative IPC: 0.27720 (Simulation time: 0 hr 4 min 10 sec) 
Heartbeat CPU  0 instructions:  146000003 cycles:  232601698 heartbeat IPC: 0.35954 cumulative IPC: 0.27859 (Simulation time: 0 hr 4 min 13 sec) 
Heartbeat CPU  0 instructions:  147000002 cycles:  237179833 heartbeat IPC: 0.21843 cumulative IPC: 0.27697 (Simulation time: 0 hr 4 min 16 sec) 
Heartbeat CPU  0 instructions:  148000000 cycles:  241664140 heartbeat IPC: 0.22300 cumulative IPC: 0.27558 (Simulation time: 0 hr 4 min 19 sec) 
Heartbeat CPU  0 instructions:  149000000 cycles:  243905187 heartbeat IPC: 0.44622 cumulative IPC: 0.27775 (Simulation time: 0 hr 4 min 20 sec) 
Heartbeat CPU  0 instructions:  150000002 cycles:  245748592 heartbeat IPC: 0.54248 cumulative IPC: 0.28048 (Simulation time: 0 hr 4 min 22 sec) 
Heartbeat CPU  0 instructions:  151000000 cycles:  249870117 heartbeat IPC: 0.24263 cumulative IPC: 0.27963 (Simulation time: 0 hr 4 min 24 sec) 
Heartbeat CPU  0 instructions:  152000000 cycles:  253169004 heartbeat IPC: 0.30313 cumulative IPC: 0.28005 (Simulation time: 0 hr 4 min 27 sec) 
Heartbeat CPU  0 instructions:  153000000 cycles:  257185035 heartbeat IPC: 0.24900 cumulative IPC: 0.27939 (Simulation time: 0 hr 4 min 29 sec) 
Heartbeat CPU  0 instructions:  154000002 cycles:  260897684 heartbeat IPC: 0.26935 cumulative IPC: 0.27920 (Simulation time: 0 hr 4 min 32 sec) 
Heartbeat CPU  0 instructions:  155000002 cycles:  262946491 heartbeat IPC: 0.48809 cumulative IPC: 0.28139 (Simulation time: 0 hr 4 min 34 sec) 
Heartbeat CPU  0 instructions:  156000000 cycles:  268453110 heartbeat IPC: 0.18160 cumulative IPC: 0.27865 (Simulation time: 0 hr 4 min 38 sec) 
Heartbeat CPU  0 instructions:  157000000 cycles:  272211129 heartbeat IPC: 0.26610 cumulative IPC: 0.27842 (Simulation time: 0 hr 4 min 40 sec) 
Heartbeat CPU  0 instructions:  158000003 cycles:  274417238 heartbeat IPC: 0.45329 cumulative IPC: 0.28029 (Simulation time: 0 hr 4 min 42 sec) 
Heartbeat CPU  0 instructions:  159000000 cycles:  276221938 heartbeat IPC: 0.55411 cumulative IPC: 0.28265 (Simulation time: 0 hr 4 min 43 sec) 
Heartbeat CPU  0 instructions:  160000000 cycles:  281110022 heartbeat IPC: 0.20458 cumulative IPC: 0.28087 (Simulation time: 0 hr 4 min 46 sec) 
Heartbeat CPU  0 instructions:  161000003 cycles:  284557656 heartbeat IPC: 0.29005 cumulative IPC: 0.28101 (Simulation time: 0 hr 4 min 49 sec) 
Heartbeat CPU  0 instructions:  162000001 cycles:  288298068 heartbeat IPC: 0.26735 cumulative IPC: 0.28078 (Simulation time: 0 hr 4 min 52 sec) 
Heartbeat CPU  0 instructions:  163000000 cycles:  291923134 heartbeat IPC: 0.27586 cumulative IPC: 0.28070 (Simulation time: 0 hr 4 min 54 sec) 
Heartbeat CPU  0 instructions:  164000000 cycles:  294494676 heartbeat IPC: 0.38887 cumulative IPC: 0.28193 (Simulation time: 0 hr 4 min 57 sec) 
Heartbeat CPU  0 instructions:  165000001 cycles:  300465426 heartbeat IPC: 0.16748 cumulative IPC: 0.27899 (Simulation time: 0 hr 5 min 1 sec) 
Heartbeat CPU  0 instructions:  166000000 cycles:  302926295 heartbeat IPC: 0.40636 cumulative IPC: 0.28033 (Simulation time: 0 hr 5 min 2 sec) 
Heartbeat CPU  0 instructions:  167000001 cycles:  305004861 heartbeat IPC: 0.48110 cumulative IPC: 0.28208 (Simulation time: 0 hr 5 min 4 sec) 
Heartbeat CPU  0 instructions:  168000000 cycles:  307641535 heartbeat IPC: 0.37927 cumulative IPC: 0.28315 (Simulation time: 0 hr 5 min 5 sec) 
Heartbeat CPU  0 instructions:  169000001 cycles:  311847524 heartbeat IPC: 0.23776 cumulative IPC: 0.28237 (Simulation time: 0 hr 5 min 8 sec) 
Heartbeat CPU  0 instructions:  170000002 cycles:  316226471 heartbeat IPC: 0.22837 cumulative IPC: 0.28142 (Simulation time: 0 hr 5 min 11 sec) 
Heartbeat CPU  0 instructions:  171000000 cycles:  318945616 heartbeat IPC: 0.36776 cumulative IPC: 0.28235 (Simulation time: 0 hr 5 min 14 sec) 
Heartbeat CPU  0 instructions:  172000000 cycles:  322463645 heartbeat IPC: 0.28425 cumulative IPC: 0.28238 (Simulation time: 0 hr 5 min 16 sec) 
Heartbeat CPU  0 instructions:  173000000 cycles:  325887456 heartbeat IPC: 0.29207 cumulative IPC: 0.28251 (Simulation time: 0 hr 5 min 19 sec) 
Heartbeat CPU  0 instructions:  174000000 cycles:  331257575 heartbeat IPC: 0.18622 cumulative IPC: 0.28055 (Simulation time: 0 hr 5 min 23 sec) 
Heartbeat CPU  0 instructions:  175000000 cycles:  333500085 heartbeat IPC: 0.44593 cumulative IPC: 0.28194 (Simulation time: 0 hr 5 min 24 sec) 
Heartbeat CPU  0 instructions:  176000000 cycles:  335472917 heartbeat IPC: 0.50689 cumulative IPC: 0.28360 (Simulation time: 0 hr 5 min 25 sec) 
Heartbeat CPU  0 instructions:  177000001 cycles:  338822195 heartbeat IPC: 0.29857 cumulative IPC: 0.28378 (Simulation time: 0 hr 5 min 28 sec) 
Heartbeat CPU  0 instructions:  178000001 cycles:  342481844 heartbeat IPC: 0.27325 cumulative IPC: 0.28364 (Simulation time: 0 hr 5 min 30 sec) 
Heartbeat CPU  0 instructions:  179000001 cycles:  347099709 heartbeat IPC: 0.21655 cumulative IPC: 0.28253 (Simulation time: 0 hr 5 min 33 sec) 
Heartbeat CPU  0 instructions:  180000000 cycles:  350577411 heartbeat IPC: 0.28755 cumulative IPC: 0.28259 (Simulation time: 0 hr 5 min 36 sec) 
Heartbeat CPU  0 instructions:  181000003 cycles:  352812850 heartbeat IPC: 0.44734 cumulative IPC: 0.28388 (Simulation time: 0 hr 5 min 38 sec) 
Heartbeat CPU  0 instructions:  182000000 cycles:  358116625 heartbeat IPC: 0.18854 cumulative IPC: 0.28214 (Simulation time: 0 hr 5 min 42 sec) 
Heartbeat CPU  0 instructions:  183000000 cycles:  362034737 heartbeat IPC: 0.25522 cumulative IPC: 0.28179 (Simulation time: 0 hr 5 min 44 sec) 
Heartbeat CPU  0 instructions:  184000000 cycles:  364240434 heartbeat IPC: 0.45337 cumulative IPC: 0.28306 (Simulation time: 0 hr 5 min 46 sec) 
Heartbeat CPU  0 instructions:  185000002 cycles:  365997741 heartbeat IPC: 0.56905 cumulative IPC: 0.28475 (Simulation time: 0 hr 5 min 47 sec) 
Heartbeat CPU  0 instructions:  186000001 cycles:  370751934 heartbeat IPC: 0.21034 cumulative IPC: 0.28358 (Simulation time: 0 hr 5 min 50 sec) 
Heartbeat CPU  0 instructions:  187000000 cycles:  374226208 heartbeat IPC: 0.28783 cumulative IPC: 0.28363 (Simulation time: 0 hr 5 min 53 sec) 
Heartbeat CPU  0 instructions:  188000000 cycles:  377673372 heartbeat IPC: 0.29009 cumulative IPC: 0.28370 (Simulation time: 0 hr 5 min 55 sec) 
Heartbeat CPU  0 instructions:  189000001 cycles:  381421721 heartbeat IPC: 0.26678 cumulative IPC: 0.28350 (Simulation time: 0 hr 5 min 58 sec) 
Heartbeat CPU  0 instructions:  190000001 cycles:  383538929 heartbeat IPC: 0.47232 cumulative IPC: 0.28476 (Simulation time: 0 hr 6 min 0 sec) 
Heartbeat CPU  0 instructions:  191000002 cycles:  389428677 heartbeat IPC: 0.16979 cumulative IPC: 0.28266 (Simulation time: 0 hr 6 min 4 sec) 
Heartbeat CPU  0 instructions:  192000000 cycles:  392549087 heartbeat IPC: 0.32047 cumulative IPC: 0.28302 (Simulation time: 0 hr 6 min 6 sec) 
Heartbeat CPU  0 instructions:  193000003 cycles:  394707691 heartbeat IPC: 0.46326 cumulative IPC: 0.28421 (Simulation time: 0 hr 6 min 8 sec) 
Heartbeat CPU  0 instructions:  194000001 cycles:  396881444 heartbeat IPC: 0.46003 cumulative IPC: 0.28537 (Simulation time: 0 hr 6 min 9 sec) 
Heartbeat CPU  0 instructions:  195000000 cycles:  401423968 heartbeat IPC: 0.22014 cumulative IPC: 0.28448 (Simulation time: 0 hr 6 min 12 sec) 
Heartbeat CPU  0 instructions:  196000000 cycles:  405425721 heartbeat IPC: 0.24989 cumulative IPC: 0.28407 (Simulation time: 0 hr 6 min 15 sec) 
Heartbeat CPU  0 instructions:  197000000 cycles:  408513768 heartbeat IPC: 0.32383 cumulative IPC: 0.28443 (Simulation time: 0 hr 6 min 18 sec) 
Heartbeat CPU  0 instructions:  198000000 cycles:  412100799 heartbeat IPC: 0.27878 cumulative IPC: 0.28438 (Simulation time: 0 hr 6 min 20 sec) 
Heartbeat CPU  0 instructions:  199000002 cycles:  414893119 heartbeat IPC: 0.35813 cumulative IPC: 0.28497 (Simulation time: 0 hr 6 min 23 sec) 
Heartbeat CPU  0 instructions:  200000000 cycles:  420856264 heartbeat IPC: 0.16770 cumulative IPC: 0.28299 (Simulation time: 0 hr 6 min 26 sec) 
Heartbeat CPU  0 instructions:  201000000 cycles:  423099026 heartbeat IPC: 0.44588 cumulative IPC: 0.28402 (Simulation time: 0 hr 6 min 28 sec) 
Heartbeat CPU  0 instructions:  202000002 cycles:  425149115 heartbeat IPC: 0.48778 cumulative IPC: 0.28518 (Simulation time: 0 hr 6 min 29 sec) 
Heartbeat CPU  0 instructions:  203000002 cycles:  427965683 heartbeat IPC: 0.35504 cumulative IPC: 0.28573 (Simulation time: 0 hr 6 min 31 sec) 
Heartbeat CPU  0 instructions:  204000000 cycles:  432075931 heartbeat IPC: 0.24329 cumulative IPC: 0.28525 (Simulation time: 0 hr 6 min 34 sec) 
Heartbeat CPU  0 instructions:  205000000 cycles:  436499117 heartbeat IPC: 0.22608 cumulative IPC: 0.28454 (Simulation time: 0 hr 6 min 37 sec) 
Heartbeat CPU  0 instructions:  206000000 cycles:  437598466 heartbeat IPC: 0.90963 cumulative IPC: 0.28640 (Simulation time: 0 hr 6 min 39 sec) 
Heartbeat CPU  0 instructions:  207000002 cycles:  447287795 heartbeat IPC: 0.10321 cumulative IPC: 0.28173 (Simulation time: 0 hr 6 min 43 sec) 
Heartbeat CPU  0 instructions:  208000000 cycles:  449634018 heartbeat IPC: 0.42622 cumulative IPC: 0.28261 (Simulation time: 0 hr 6 min 45 sec) 
Heartbeat CPU  0 instructions:  209000001 cycles:  454743870 heartbeat IPC: 0.19570 cumulative IPC: 0.28147 (Simulation time: 0 hr 6 min 49 sec) 
Heartbeat CPU  0 instructions:  210000000 cycles:  459835013 heartbeat IPC: 0.19642 cumulative IPC: 0.28036 (Simulation time: 0 hr 6 min 52 sec) 
Heartbeat CPU  0 instructions:  211000001 cycles:  464321945 heartbeat IPC: 0.22287 cumulative IPC: 0.27971 (Simulation time: 0 hr 6 min 56 sec) 
Heartbeat CPU  0 instructions:  212000000 cycles:  468082612 heartbeat IPC: 0.26591 cumulative IPC: 0.27958 (Simulation time: 0 hr 6 min 59 sec) 
Heartbeat CPU  0 instructions:  213000002 cycles:  472876769 heartbeat IPC: 0.20859 cumulative IPC: 0.27874 (Simulation time: 0 hr 7 min 2 sec) 
Heartbeat CPU  0 instructions:  214000001 cycles:  477021472 heartbeat IPC: 0.24127 cumulative IPC: 0.27836 (Simulation time: 0 hr 7 min 4 sec) 
Heartbeat CPU  0 instructions:  215000002 cycles:  480704597 heartbeat IPC: 0.27151 cumulative IPC: 0.27830 (Simulation time: 0 hr 7 min 7 sec) 
Heartbeat CPU  0 instructions:  216000000 cycles:  483323318 heartbeat IPC: 0.38187 cumulative IPC: 0.27895 (Simulation time: 0 hr 7 min 9 sec) 
Heartbeat CPU  0 instructions:  217000000 cycles:  486332043 heartbeat IPC: 0.33237 cumulative IPC: 0.27934 (Simulation time: 0 hr 7 min 12 sec) 
Heartbeat CPU  0 instructions:  218000002 cycles:  488394435 heartbeat IPC: 0.48487 cumulative IPC: 0.28035 (Simulation time: 0 hr 7 min 14 sec) 
Heartbeat CPU  0 instructions:  219000003 cycles:  490424615 heartbeat IPC: 0.49257 cumulative IPC: 0.28136 (Simulation time: 0 hr 7 min 17 sec) 
Heartbeat CPU  0 instructions:  220000000 cycles:  492863653 heartbeat IPC: 0.41000 cumulative IPC: 0.28210 (Simulation time: 0 hr 7 min 19 sec) 
Heartbeat CPU  0 instructions:  221000000 cycles:  496204622 heartbeat IPC: 0.29931 cumulative IPC: 0.28224 (Simulation time: 0 hr 7 min 21 sec) 
Heartbeat CPU  0 instructions:  222000001 cycles:  500444980 heartbeat IPC: 0.23583 cumulative IPC: 0.28178 (Simulation time: 0 hr 7 min 25 sec) 
Heartbeat CPU  0 instructions:  223000001 cycles:  504241846 heartbeat IPC: 0.26338 cumulative IPC: 0.28162 (Simulation time: 0 hr 7 min 27 sec) 
Heartbeat CPU  0 instructions:  224000000 cycles:  507222921 heartbeat IPC: 0.33545 cumulative IPC: 0.28199 (Simulation time: 0 hr 7 min 30 sec) 
Heartbeat CPU  0 instructions:  225000000 cycles:  510836171 heartbeat IPC: 0.27676 cumulative IPC: 0.28194 (Simulation time: 0 hr 7 min 33 sec) 
Heartbeat CPU  0 instructions:  226000000 cycles:  512728806 heartbeat IPC: 0.52836 cumulative IPC: 0.28299 (Simulation time: 0 hr 7 min 35 sec) 
Heartbeat CPU  0 instructions:  227000000 cycles:  518709979 heartbeat IPC: 0.16719 cumulative IPC: 0.28146 (Simulation time: 0 hr 7 min 39 sec) 
Heartbeat CPU  0 instructions:  228000000 cycles:  522037474 heartbeat IPC: 0.30053 cumulative IPC: 0.28160 (Simulation time: 0 hr 7 min 41 sec) 
Heartbeat CPU  0 instructions:  229000001 cycles:  524187559 heartbeat IPC: 0.46510 cumulative IPC: 0.28246 (Simulation time: 0 hr 7 min 42 sec) 
Heartbeat CPU  0 instructions:  230000000 cycles:  526094747 heartbeat IPC: 0.52433 cumulative IPC: 0.28347 (Simulation time: 0 hr 7 min 44 sec) 
Heartbeat CPU  0 instructions:  231000002 cycles:  531048658 heartbeat IPC: 0.20186 cumulative IPC: 0.28259 (Simulation time: 0 hr 7 min 47 sec) 
Heartbeat CPU  0 instructions:  232000000 cycles:  534812263 heartbeat IPC: 0.26570 cumulative IPC: 0.28246 (Simulation time: 0 hr 7 min 50 sec) 
Heartbeat CPU  0 instructions:  233000000 cycles:  538552394 heartbeat IPC: 0.26737 cumulative IPC: 0.28234 (Simulation time: 0 hr 7 min 53 sec) 
Heartbeat CPU  0 instructions:  234000002 cycles:  542016224 heartbeat IPC: 0.28870 cumulative IPC: 0.28238 (Simulation time: 0 hr 7 min 55 sec) 
Heartbeat CPU  0 instructions:  235000000 cycles:  545584478 heartbeat IPC: 0.28025 cumulative IPC: 0.28237 (Simulation time: 0 hr 7 min 58 sec) 
Heartbeat CPU  0 instructions:  236000000 cycles:  550871065 heartbeat IPC: 0.18916 cumulative IPC: 0.28135 (Simulation time: 0 hr 8 min 1 sec) 
Heartbeat CPU  0 instructions:  237000002 cycles:  553098892 heartbeat IPC: 0.44887 cumulative IPC: 0.28212 (Simulation time: 0 hr 8 min 3 sec) 
Heartbeat CPU  0 instructions:  238000002 cycles:  555034331 heartbeat IPC: 0.51668 cumulative IPC: 0.28305 (Simulation time: 0 hr 8 min 4 sec) 
Heartbeat CPU  0 instructions:  239000001 cycles:  558468161 heartbeat IPC: 0.29122 cumulative IPC: 0.28311 (Simulation time: 0 hr 8 min 6 sec) 
Heartbeat CPU  0 instructions:  240000000 cycles:  562066612 heartbeat IPC: 0.27790 cumulative IPC: 0.28307 (Simulation time: 0 hr 8 min 9 sec) 
Heartbeat CPU  0 instructions:  241000001 cycles:  566662055 heartbeat IPC: 0.21761 cumulative IPC: 0.28247 (Simulation time: 0 hr 8 min 13 sec) 
Heartbeat CPU  0 instructions:  242000002 cycles:  569653016 heartbeat IPC: 0.33434 cumulative IPC: 0.28277 (Simulation time: 0 hr 8 min 15 sec) 
Heartbeat CPU  0 instructions:  243000002 cycles:  572403740 heartbeat IPC: 0.36354 cumulative IPC: 0.28321 (Simulation time: 0 hr 8 min 18 sec) 
Heartbeat CPU  0 instructions:  244000000 cycles:  577029251 heartbeat IPC: 0.21619 cumulative IPC: 0.28261 (Simulation time: 0 hr 8 min 21 sec) 
Heartbeat CPU  0 instructions:  245000001 cycles:  581502250 heartbeat IPC: 0.22356 cumulative IPC: 0.28209 (Simulation time: 0 hr 8 min 24 sec) 
Heartbeat CPU  0 instructions:  246000001 cycles:  583745614 heartbeat IPC: 0.44576 cumulative IPC: 0.28280 (Simulation time: 0 hr 8 min 25 sec) 
Heartbeat CPU  0 instructions:  247000001 cycles:  585594887 heartbeat IPC: 0.54075 cumulative IPC: 0.28372 (Simulation time: 0 hr 8 min 27 sec) 
Heartbeat CPU  0 instructions:  248000000 cycles:  589761379 heartbeat IPC: 0.24001 cumulative IPC: 0.28338 (Simulation time: 0 hr 8 min 29 sec) 
Heartbeat CPU  0 instructions:  249000000 cycles:  593068293 heartbeat IPC: 0.30240 cumulative IPC: 0.28349 (Simulation time: 0 hr 8 min 32 sec) 
Heartbeat CPU  0 instructions:  250000000 cycles:  597082077 heartbeat IPC: 0.24914 cumulative IPC: 0.28323 (Simulation time: 0 hr 8 min 34 sec) 
Heartbeat CPU  0 instructions:  251000002 cycles:  600838124 heartbeat IPC: 0.26624 cumulative IPC: 0.28311 (Simulation time: 0 hr 8 min 37 sec) 
Heartbeat CPU  0 instructions:  252000000 cycles:  602851391 heartbeat IPC: 0.49670 cumulative IPC: 0.28392 (Simulation time: 0 hr 8 min 40 sec) 
Heartbeat CPU  0 instructions:  253000000 cycles:  608398454 heartbeat IPC: 0.18028 cumulative IPC: 0.28286 (Simulation time: 0 hr 8 min 43 sec) 
Heartbeat CPU  0 instructions:  254000000 cycles:  612126891 heartbeat IPC: 0.26821 cumulative IPC: 0.28275 (Simulation time: 0 hr 8 min 46 sec) 
Heartbeat CPU  0 instructions:  255000002 cycles:  614327843 heartbeat IPC: 0.45435 cumulative IPC: 0.28345 (Simulation time: 0 hr 8 min 47 sec) 
Heartbeat CPU  0 instructions:  256000000 cycles:  616130273 heartbeat IPC: 0.55481 cumulative IPC: 0.28434 (Simulation time: 0 hr 8 min 49 sec) 
Heartbeat CPU  0 instructions:  257000000 cycles:  621040082 heartbeat IPC: 0.20367 cumulative IPC: 0.28362 (Simulation time: 0 hr 8 min 51 sec) 
Heartbeat CPU  0 instructions:  258000002 cycles:  624497385 heartbeat IPC: 0.28924 cumulative IPC: 0.28366 (Simulation time: 0 hr 8 min 54 sec) 
Heartbeat CPU  0 instructions:  259000003 cycles:  627888613 heartbeat IPC: 0.29488 cumulative IPC: 0.28372 (Simulation time: 0 hr 8 min 57 sec) 
Heartbeat CPU  0 instructions:  260000000 cycles:  631611889 heartbeat IPC: 0.26858 cumulative IPC: 0.28362 (Simulation time: 0 hr 8 min 59 sec) 
Heartbeat CPU  0 instructions:  261000000 cycles:  633872812 heartbeat IPC: 0.44230 cumulative IPC: 0.28426 (Simulation time: 0 hr 9 min 2 sec) 
Heartbeat CPU  0 instructions:  262000000 cycles:  639767847 heartbeat IPC: 0.16963 cumulative IPC: 0.28308 (Simulation time: 0 hr 9 min 6 sec) 
Heartbeat CPU  0 instructions:  263000002 cycles:  642696728 heartbeat IPC: 0.34143 cumulative IPC: 0.28337 (Simulation time: 0 hr 9 min 8 sec) 
Heartbeat CPU  0 instructions:  264000000 cycles:  644819798 heartbeat IPC: 0.47102 cumulative IPC: 0.28406 (Simulation time: 0 hr 9 min 9 sec) 
Heartbeat CPU  0 instructions:  265000003 cycles:  647208908 heartbeat IPC: 0.41857 cumulative IPC: 0.28462 (Simulation time: 0 hr 9 min 11 sec) 
Heartbeat CPU  0 instructions:  266000002 cycles:  651594390 heartbeat IPC: 0.22802 cumulative IPC: 0.28419 (Simulation time: 0 hr 9 min 13 sec) 
Heartbeat CPU  0 instructions:  267000000 cycles:  655750339 heartbeat IPC: 0.24062 cumulative IPC: 0.28389 (Simulation time: 0 hr 9 min 16 sec) 
Heartbeat CPU  0 instructions:  268000000 cycles:  658661212 heartbeat IPC: 0.34354 cumulative IPC: 0.28418 (Simulation time: 0 hr 9 min 19 sec) 
Heartbeat CPU  0 instructions:  269000002 cycles:  662283825 heartbeat IPC: 0.27604 cumulative IPC: 0.28413 (Simulation time: 0 hr 9 min 21 sec) 
Heartbeat CPU  0 instructions:  270000001 cycles:  665280853 heartbeat IPC: 0.33366 cumulative IPC: 0.28438 (Simulation time: 0 hr 9 min 24 sec) 
Heartbeat CPU  0 instructions:  271000003 cycles:  671015573 heartbeat IPC: 0.17438 cumulative IPC: 0.28333 (Simulation time: 0 hr 9 min 28 sec) 
Heartbeat CPU  0 instructions:  272000000 cycles:  673258783 heartbeat IPC: 0.44579 cumulative IPC: 0.28393 (Simulation time: 0 hr 9 min 29 sec) 
Heartbeat CPU  0 instructions:  273000003 cycles:  675270225 heartbeat IPC: 0.49716 cumulative IPC: 0.28464 (Simulation time: 0 hr 9 min 31 sec) 
Heartbeat CPU  0 instructions:  274000002 cycles:  678297518 heartbeat IPC: 0.33033 cumulative IPC: 0.28487 (Simulation time: 0 hr 9 min 33 sec) 
Heartbeat CPU  0 instructions:  275000001 cycles:  682234940 heartbeat IPC: 0.25397 cumulative IPC: 0.28467 (Simulation time: 0 hr 9 min 35 sec) 
Heartbeat CPU  0 instructions:  276000000 cycles:  686719222 heartbeat IPC: 0.22300 cumulative IPC: 0.28422 (Simulation time: 0 hr 9 min 38 sec) 
Heartbeat CPU  0 instructions:  277000001 cycles:  689492835 heartbeat IPC: 0.36054 cumulative IPC: 0.28456 (Simulation time: 0 hr 9 min 41 sec) 
Heartbeat CPU  0 instructions:  278000000 cycles:  692633578 heartbeat IPC: 0.31840 cumulative IPC: 0.28473 (Simulation time: 0 hr 9 min 43 sec) 
Heartbeat CPU  0 instructions:  279000000 cycles:  696694736 heartbeat IPC: 0.24624 cumulative IPC: 0.28448 (Simulation time: 0 hr 9 min 47 sec) 
Heartbeat CPU  0 instructions:  280000000 cycles:  701572664 heartbeat IPC: 0.20501 cumulative IPC: 0.28387 (Simulation time: 0 hr 9 min 50 sec) 
Heartbeat CPU  0 instructions:  281000000 cycles:  703805748 heartbeat IPC: 0.44781 cumulative IPC: 0.28445 (Simulation time: 0 hr 9 min 51 sec) 
Heartbeat CPU  0 instructions:  282000000 cycles:  705714137 heartbeat IPC: 0.52400 cumulative IPC: 0.28516 (Simulation time: 0 hr 9 min 53 sec) 
Heartbeat CPU  0 instructions:  283000003 cycles:  709479025 heartbeat IPC: 0.26561 cumulative IPC: 0.28505 (Simulation time: 0 hr 9 min 55 sec) 
Heartbeat CPU  0 instructions:  284000000 cycles:  712729296 heartbeat IPC: 0.30767 cumulative IPC: 0.28516 (Simulation time: 0 hr 9 min 57 sec) 
Heartbeat CPU  0 instructions:  285000001 cycles:  717241030 heartbeat IPC: 0.22164 cumulative IPC: 0.28472 (Simulation time: 0 hr 10 min 0 sec) 
Heartbeat CPU  0 instructions:  286000000 cycles:  720510195 heartbeat IPC: 0.30589 cumulative IPC: 0.28483 (Simulation time: 0 hr 10 min 3 sec) 
Heartbeat CPU  0 instructions:  287000003 cycles:  722989701 heartbeat IPC: 0.40331 cumulative IPC: 0.28528 (Simulation time: 0 hr 10 min 5 sec) 
Heartbeat CPU  0 instructions:  288000000 cycles:  727981887 heartbeat IPC: 0.20031 cumulative IPC: 0.28463 (Simulation time: 0 hr 10 min 9 sec) 
Heartbeat CPU  0 instructions:  289000000 cycles:  732128128 heartbeat IPC: 0.24118 cumulative IPC: 0.28436 (Simulation time: 0 hr 10 min 11 sec) 
Heartbeat CPU  0 instructions:  290000000 cycles:  734351577 heartbeat IPC: 0.44975 cumulative IPC: 0.28491 (Simulation time: 0 hr 10 min 13 sec) 
Heartbeat CPU  0 instructions:  291000000 cycles:  736141024 heartbeat IPC: 0.55883 cumulative IPC: 0.28565 (Simulation time: 0 hr 10 min 14 sec) 
Heartbeat CPU  0 instructions:  292000000 cycles:  740646493 heartbeat IPC: 0.22195 cumulative IPC: 0.28522 (Simulation time: 0 hr 10 min 17 sec) 
Heartbeat CPU  0 instructions:  293000002 cycles:  744094290 heartbeat IPC: 0.29004 cumulative IPC: 0.28525 (Simulation time: 0 hr 10 min 20 sec) 
Heartbeat CPU  0 instructions:  294000001 cycles:  747743284 heartbeat IPC: 0.27405 cumulative IPC: 0.28519 (Simulation time: 0 hr 10 min 22 sec) 
Heartbeat CPU  0 instructions:  295000003 cycles:  751458310 heartbeat IPC: 0.26918 cumulative IPC: 0.28510 (Simulation time: 0 hr 10 min 25 sec) 
Heartbeat CPU  0 instructions:  296000000 cycles:  753366854 heartbeat IPC: 0.52396 cumulative IPC: 0.28576 (Simulation time: 0 hr 10 min 27 sec) 
Heartbeat CPU  0 instructions:  297000000 cycles:  759317315 heartbeat IPC: 0.16805 cumulative IPC: 0.28475 (Simulation time: 0 hr 10 min 31 sec) 
Heartbeat CPU  0 instructions:  298000000 cycles:  762675866 heartbeat IPC: 0.29775 cumulative IPC: 0.28481 (Simulation time: 0 hr 10 min 33 sec) 
Heartbeat CPU  0 instructions:  299000000 cycles:  764854207 heartbeat IPC: 0.45906 cumulative IPC: 0.28536 (Simulation time: 0 hr 10 min 35 sec) 
Heartbeat CPU  0 instructions:  300000000 cycles:  767287447 heartbeat IPC: 0.41097 cumulative IPC: 0.28580 (Simulation time: 0 hr 10 min 37 sec) 
Heartbeat CPU  0 instructions:  301000001 cycles:  771766449 heartbeat IPC: 0.22326 cumulative IPC: 0.28540 (Simulation time: 0 hr 10 min 40 sec) 
Heartbeat CPU  0 instructions:  302000001 cycles:  775903664 heartbeat IPC: 0.24171 cumulative IPC: 0.28514 (Simulation time: 0 hr 10 min 42 sec) 
Heartbeat CPU  0 instructions:  303000002 cycles:  779370596 heartbeat IPC: 0.28844 cumulative IPC: 0.28516 (Simulation time: 0 hr 10 min 45 sec) 
Heartbeat CPU  0 instructions:  304000000 cycles:  783008266 heartbeat IPC: 0.27490 cumulative IPC: 0.28511 (Simulation time: 0 hr 10 min 47 sec) 
Heartbeat CPU  0 instructions:  305000003 cycles:  786727150 heartbeat IPC: 0.26890 cumulative IPC: 0.28502 (Simulation time: 0 hr 10 min 50 sec) 
Heartbeat CPU  0 instructions:  306000003 cycles:  788722875 heartbeat IPC: 0.50107 cumulative IPC: 0.28562 (Simulation time: 0 hr 10 min 52 sec) 
Heartbeat CPU  0 instructions:  307000003 cycles:  794639225 heartbeat IPC: 0.16902 cumulative IPC: 0.28467 (Simulation time: 0 hr 10 min 56 sec) 
Heartbeat CPU  0 instructions:  308000000 cycles:  797910851 heartbeat IPC: 0.30566 cumulative IPC: 0.28477 (Simulation time: 0 hr 10 min 58 sec) 
Heartbeat CPU  0 instructions:  309000001 cycles:  800080769 heartbeat IPC: 0.46085 cumulative IPC: 0.28529 (Simulation time: 0 hr 11 min 0 sec) 
Heartbeat CPU  0 instructions:  310000001 cycles:  802373484 heartbeat IPC: 0.43616 cumulative IPC: 0.28576 (Simulation time: 0 hr 11 min 1 sec) 
Heartbeat CPU  0 instructions:  311000001 cycles:  805947091 heartbeat IPC: 0.27983 cumulative IPC: 0.28573 (Simulation time: 0 hr 11 min 4 sec) 
Heartbeat CPU  0 instructions:  312000000 cycles:  810409882 heartbeat IPC: 0.22407 cumulative IPC: 0.28536 (Simulation time: 0 hr 11 min 6 sec) 
Heartbeat CPU  0 instructions:  313000000 cycles:  813888376 heartbeat IPC: 0.28748 cumulative IPC: 0.28537 (Simulation time: 0 hr 11 min 9 sec) 
Heartbeat CPU  0 instructions:  314000003 cycles:  816889089 heartbeat IPC: 0.33326 cumulative IPC: 0.28556 (Simulation time: 0 hr 11 min 12 sec) 
Heartbeat CPU  0 instructions:  315000000 cycles:  822125239 heartbeat IPC: 0.19098 cumulative IPC: 0.28490 (Simulation time: 0 hr 11 min 15 sec) 
Heartbeat CPU  0 instructions:  316000000 cycles:  828653803 heartbeat IPC: 0.15317 cumulative IPC: 0.28377 (Simulation time: 0 hr 11 min 18 sec) 
Heartbeat CPU  0 instructions:  317000002 cycles:  832232474 heartbeat IPC: 0.27943 cumulative IPC: 0.28375 (Simulation time: 0 hr 11 min 21 sec) 
Heartbeat CPU  0 instructions:  318000000 cycles:  837217175 heartbeat IPC: 0.20061 cumulative IPC: 0.28322 (Simulation time: 0 hr 11 min 25 sec) 
Heartbeat CPU  0 instructions:  319000001 cycles:  841820613 heartbeat IPC: 0.21723 cumulative IPC: 0.28282 (Simulation time: 0 hr 11 min 28 sec) 
Heartbeat CPU  0 instructions:  320000000 cycles:  845986315 heartbeat IPC: 0.24006 cumulative IPC: 0.28259 (Simulation time: 0 hr 11 min 31 sec) 
Heartbeat CPU  0 instructions:  321000003 cycles:  850664453 heartbeat IPC: 0.21376 cumulative IPC: 0.28218 (Simulation time: 0 hr 11 min 34 sec) 
Heartbeat CPU  0 instructions:  322000001 cycles:  854657581 heartbeat IPC: 0.25043 cumulative IPC: 0.28202 (Simulation time: 0 hr 11 min 37 sec) 
Heartbeat CPU  0 instructions:  323000002 cycles:  858688624 heartbeat IPC: 0.24808 cumulative IPC: 0.28185 (Simulation time: 0 hr 11 min 40 sec) 
Heartbeat CPU  0 instructions:  324000000 cycles:  861714194 heartbeat IPC: 0.33052 cumulative IPC: 0.28203 (Simulation time: 0 hr 11 min 42 sec) 
Heartbeat CPU  0 instructions:  325000000 cycles:  864665648 heartbeat IPC: 0.33882 cumulative IPC: 0.28224 (Simulation time: 0 hr 11 min 44 sec) 
Heartbeat CPU  0 instructions:  326000002 cycles:  866907876 heartbeat IPC: 0.44599 cumulative IPC: 0.28270 (Simulation time: 0 hr 11 min 47 sec) 
Heartbeat CPU  0 instructions:  327000000 cycles:  869294744 heartbeat IPC: 0.41896 cumulative IPC: 0.28311 (Simulation time: 0 hr 11 min 49 sec) 
Heartbeat CPU  0 instructions:  328000000 cycles:  870920085 heartbeat IPC: 0.61526 cumulative IPC: 0.28378 (Simulation time: 0 hr 11 min 52 sec) 
Heartbeat CPU  0 instructions:  329000002 cycles:  873956885 heartbeat IPC: 0.32929 cumulative IPC: 0.28395 (Simulation time: 0 hr 11 min 54 sec) 
Heartbeat CPU  0 instructions:  330000000 cycles:  878348904 heartbeat IPC: 0.22769 cumulative IPC: 0.28365 (Simulation time: 0 hr 11 min 57 sec) 
Heartbeat CPU  0 instructions:  331000002 cycles:  882171203 heartbeat IPC: 0.26162 cumulative IPC: 0.28354 (Simulation time: 0 hr 12 min 0 sec) 
Heartbeat CPU  0 instructions:  332000000 cycles:  885420353 heartbeat IPC: 0.30777 cumulative IPC: 0.28364 (Simulation time: 0 hr 12 min 3 sec) 
Heartbeat CPU  0 instructions:  333000003 cycles:  888626944 heartbeat IPC: 0.31186 cumulative IPC: 0.28375 (Simulation time: 0 hr 12 min 5 sec) 
Heartbeat CPU  0 instructions:  334000000 cycles:  891646982 heartbeat IPC: 0.33112 cumulative IPC: 0.28392 (Simulation time: 0 hr 12 min 8 sec) 
Heartbeat CPU  0 instructions:  335000002 cycles:  895786466 heartbeat IPC: 0.24158 cumulative IPC: 0.28371 (Simulation time: 0 hr 12 min 11 sec) 
Heartbeat CPU  0 instructions:  336000000 cycles:  900610847 heartbeat IPC: 0.20728 cumulative IPC: 0.28327 (Simulation time: 0 hr 12 min 14 sec) 
Heartbeat CPU  0 instructions:  337000000 cycles:  902817205 heartbeat IPC: 0.45324 cumulative IPC: 0.28372 (Simulation time: 0 hr 12 min 16 sec) 
Heartbeat CPU  0 instructions:  338000000 cycles:  904710912 heartbeat IPC: 0.52806 cumulative IPC: 0.28427 (Simulation time: 0 hr 12 min 17 sec) 
Heartbeat CPU  0 instructions:  339000001 cycles:  908065817 heartbeat IPC: 0.29807 cumulative IPC: 0.28433 (Simulation time: 0 hr 12 min 19 sec) 
Heartbeat CPU  0 instructions:  340000000 cycles:  911815734 heartbeat IPC: 0.26667 cumulative IPC: 0.28425 (Simulation time: 0 hr 12 min 22 sec) 
Heartbeat CPU  0 instructions:  341000002 cycles:  915786751 heartbeat IPC: 0.25183 cumulative IPC: 0.28410 (Simulation time: 0 hr 12 min 24 sec) 
Heartbeat CPU  0 instructions:  342000001 cycles:  920245582 heartbeat IPC: 0.22427 cumulative IPC: 0.28378 (Simulation time: 0 hr 12 min 27 sec) 
Heartbeat CPU  0 instructions:  343000003 cycles:  923882232 heartbeat IPC: 0.27498 cumulative IPC: 0.28375 (Simulation time: 0 hr 12 min 30 sec) 
Heartbeat CPU  0 instructions:  344000000 cycles:  926200811 heartbeat IPC: 0.43130 cumulative IPC: 0.28415 (Simulation time: 0 hr 12 min 32 sec) 
Heartbeat CPU  0 instructions:  345000000 cycles:  931439580 heartbeat IPC: 0.19088 cumulative IPC: 0.28358 (Simulation time: 0 hr 12 min 36 sec) 
Heartbeat CPU  0 instructions:  346000000 cycles:  935411013 heartbeat IPC: 0.25180 cumulative IPC: 0.28343 (Simulation time: 0 hr 12 min 39 sec) 
Heartbeat CPU  0 instructions:  347000000 cycles:  937609300 heartbeat IPC: 0.45490 cumulative IPC: 0.28387 (Simulation time: 0 hr 12 min 40 sec) 
Heartbeat CPU  0 instructions:  348000000 cycles:  939425436 heartbeat IPC: 0.55062 cumulative IPC: 0.28442 (Simulation time: 0 hr 12 min 42 sec) 
Heartbeat CPU  0 instructions:  349000000 cycles:  943362800 heartbeat IPC: 0.25398 cumulative IPC: 0.28429 (Simulation time: 0 hr 12 min 44 sec) 
Heartbeat CPU  0 instructions:  350000000 cycles:  947296728 heartbeat IPC: 0.25420 cumulative IPC: 0.28415 (Simulation time: 0 hr 12 min 46 sec) 
Heartbeat CPU  0 instructions:  351000002 cycles:  950606940 heartbeat IPC: 0.30210 cumulative IPC: 0.28422 (Simulation time: 0 hr 12 min 49 sec) 
Heartbeat CPU  0 instructions:  352000000 cycles:  954766240 heartbeat IPC: 0.24042 cumulative IPC: 0.28401 (Simulation time: 0 hr 12 min 52 sec) 
Heartbeat CPU  0 instructions:  353000001 cycles:  958401969 heartbeat IPC: 0.27505 cumulative IPC: 0.28398 (Simulation time: 0 hr 12 min 55 sec) 
Heartbeat CPU  0 instructions:  354000001 cycles:  960591210 heartbeat IPC: 0.45678 cumulative IPC: 0.28440 (Simulation time: 0 hr 12 min 57 sec) 
Heartbeat CPU  0 instructions:  355000002 cycles:  965970234 heartbeat IPC: 0.18591 cumulative IPC: 0.28381 (Simulation time: 0 hr 13 min 1 sec) 
Heartbeat CPU  0 instructions:  356000000 cycles:  969844214 heartbeat IPC: 0.25813 cumulative IPC: 0.28370 (Simulation time: 0 hr 13 min 3 sec) 
Heartbeat CPU  0 instructions:  357000002 cycles:  972048270 heartbeat IPC: 0.45371 cumulative IPC: 0.28412 (Simulation time: 0 hr 13 min 5 sec) 
Heartbeat CPU  0 instructions:  358000000 cycles:  973945712 heartbeat IPC: 0.52702 cumulative IPC: 0.28462 (Simulation time: 0 hr 13 min 6 sec) 
Heartbeat CPU  0 instructions:  359000001 cycles:  977830098 heartbeat IPC: 0.25744 cumulative IPC: 0.28451 (Simulation time: 0 hr 13 min 9 sec) 
Heartbeat CPU  0 instructions:  360000000 cycles:  981826554 heartbeat IPC: 0.25022 cumulative IPC: 0.28436 (Simulation time: 0 hr 13 min 11 sec) 
Heartbeat CPU  0 instructions:  361000001 cycles:  985108432 heartbeat IPC: 0.30470 cumulative IPC: 0.28443 (Simulation time: 0 hr 13 min 14 sec) 
Heartbeat CPU  0 instructions:  362000000 cycles:  989146557 heartbeat IPC: 0.24764 cumulative IPC: 0.28427 (Simulation time: 0 hr 13 min 17 sec) 
Heartbeat CPU  0 instructions:  363000000 cycles:  992876475 heartbeat IPC: 0.26810 cumulative IPC: 0.28420 (Simulation time: 0 hr 13 min 19 sec) 
Heartbeat CPU  0 instructions:  364000000 cycles:  994931317 heartbeat IPC: 0.48666 cumulative IPC: 0.28465 (Simulation time: 0 hr 13 min 22 sec) 
Heartbeat CPU  0 instructions:  365000003 cycles: 1000438220 heartbeat IPC: 0.18159 cumulative IPC: 0.28404 (Simulation time: 0 hr 13 min 25 sec) 
Heartbeat CPU  0 instructions:  366000000 cycles: 1004201705 heartbeat IPC: 0.26571 cumulative IPC: 0.28397 (Simulation time: 0 hr 13 min 28 sec) 
Heartbeat CPU  0 instructions:  367000001 cycles: 1006403739 heartbeat IPC: 0.45413 cumulative IPC: 0.28437 (Simulation time: 0 hr 13 min 29 sec) 
Heartbeat CPU  0 instructions:  368000000 cycles: 1008391270 heartbeat IPC: 0.50314 cumulative IPC: 0.28483 (Simulation time: 0 hr 13 min 31 sec) 
Heartbeat CPU  0 instructions:  369000001 cycles: 1012221736 heartbeat IPC: 0.26107 cumulative IPC: 0.28474 (Simulation time: 0 hr 13 min 33 sec) 
Heartbeat CPU  0 instructions:  370000003 cycles: 1016274147 heartbeat IPC: 0.24677 cumulative IPC: 0.28457 (Simulation time: 0 hr 13 min 35 sec) 
Heartbeat CPU  0 instructions:  371000001 cycles: 1019569210 heartbeat IPC: 0.30348 cumulative IPC: 0.28464 (Simulation time: 0 hr 13 min 38 sec) 
Heartbeat CPU  0 instructions:  372000000 cycles: 1023500131 heartbeat IPC: 0.25439 cumulative IPC: 0.28451 (Simulation time: 0 hr 13 min 41 sec) 
Heartbeat CPU  0 instructions:  373000003 cycles: 1027247698 heartbeat IPC: 0.26684 cumulative IPC: 0.28445 (Simulation time: 0 hr 13 min 44 sec) 
Heartbeat CPU  0 instructions:  374000001 cycles: 1029229864 heartbeat IPC: 0.50450 cumulative IPC: 0.28490 (Simulation time: 0 hr 13 min 46 sec) 
Heartbeat CPU  0 instructions:  375000003 cycles: 1034873247 heartbeat IPC: 0.17720 cumulative IPC: 0.28427 (Simulation time: 0 hr 13 min 50 sec) 
Heartbeat CPU  0 instructions:  376000000 cycles: 1038521834 heartbeat IPC: 0.27408 cumulative IPC: 0.28423 (Simulation time: 0 hr 13 min 52 sec) 
Heartbeat CPU  0 instructions:  377000000 cycles: 1040709438 heartbeat IPC: 0.45712 cumulative IPC: 0.28462 (Simulation time: 0 hr 13 min 53 sec) 
Heartbeat CPU  0 instructions:  378000003 cycles: 1042782836 heartbeat IPC: 0.48230 cumulative IPC: 0.28504 (Simulation time: 0 hr 13 min 55 sec) 
Heartbeat CPU  0 instructions:  379000002 cycles: 1046564150 heartbeat IPC: 0.26446 cumulative IPC: 0.28496 (Simulation time: 0 hr 13 min 58 sec) 
Heartbeat CPU  0 instructions:  380000000 cycles: 1050678773 heartbeat IPC: 0.24304 cumulative IPC: 0.28479 (Simulation time: 0 hr 14 min 0 sec) 
Heartbeat CPU  0 instructions:  381000000 cycles: 1054028999 heartbeat IPC: 0.29849 cumulative IPC: 0.28483 (Simulation time: 0 hr 14 min 3 sec) 
Heartbeat CPU  0 instructions:  382000003 cycles: 1057854688 heartbeat IPC: 0.26139 cumulative IPC: 0.28474 (Simulation time: 0 hr 14 min 5 sec) 
Heartbeat CPU  0 instructions:  383000001 cycles: 1061592213 heartbeat IPC: 0.26756 cumulative IPC: 0.28468 (Simulation time: 0 hr 14 min 8 sec) 
Heartbeat CPU  0 instructions:  384000000 cycles: 1063529114 heartbeat IPC: 0.51629 cumulative IPC: 0.28513 (Simulation time: 0 hr 14 min 10 sec) 
Heartbeat CPU  0 instructions:  385000000 cycles: 1069341592 heartbeat IPC: 0.17204 cumulative IPC: 0.28447 (Simulation time: 0 hr 14 min 14 sec) 
Heartbeat CPU  0 instructions:  386000002 cycles: 1072853917 heartbeat IPC: 0.28471 cumulative IPC: 0.28447 (Simulation time: 0 hr 14 min 16 sec) 
Heartbeat CPU  0 instructions:  387000000 cycles: 1075044914 heartbeat IPC: 0.45641 cumulative IPC: 0.28485 (Simulation time: 0 hr 14 min 18 sec) 
Heartbeat CPU  0 instructions:  388000000 cycles: 1077181392 heartbeat IPC: 0.46806 cumulative IPC: 0.28523 (Simulation time: 0 hr 14 min 20 sec) 
Heartbeat CPU  0 instructions:  389000001 cycles: 1080925696 heartbeat IPC: 0.26707 cumulative IPC: 0.28517 (Simulation time: 0 hr 14 min 22 sec) 
Heartbeat CPU  0 instructions:  390000002 cycles: 1085124478 heartbeat IPC: 0.23816 cumulative IPC: 0.28497 (Simulation time: 0 hr 14 min 24 sec) 
Heartbeat CPU  0 instructions:  391000001 cycles: 1088512286 heartbeat IPC: 0.29518 cumulative IPC: 0.28501 (Simulation time: 0 hr 14 min 27 sec) 
Heartbeat CPU  0 instructions:  392000000 cycles: 1092248950 heartbeat IPC: 0.26762 cumulative IPC: 0.28494 (Simulation time: 0 hr 14 min 30 sec) 
Heartbeat CPU  0 instructions:  393000002 cycles: 1095963465 heartbeat IPC: 0.26921 cumulative IPC: 0.28489 (Simulation time: 0 hr 14 min 33 sec) 
Heartbeat CPU  0 instructions:  394000002 cycles: 1097838694 heartbeat IPC: 0.53327 cumulative IPC: 0.28534 (Simulation time: 0 hr 14 min 35 sec) 
Heartbeat CPU  0 instructions:  395000001 cycles: 1103794667 heartbeat IPC: 0.16790 cumulative IPC: 0.28466 (Simulation time: 0 hr 14 min 39 sec) 
Heartbeat CPU  0 instructions:  396000000 cycles: 1107215091 heartbeat IPC: 0.29236 cumulative IPC: 0.28469 (Simulation time: 0 hr 14 min 41 sec) 
Heartbeat CPU  0 instructions:  397000000 cycles: 1109393985 heartbeat IPC: 0.45895 cumulative IPC: 0.28505 (Simulation time: 0 hr 14 min 42 sec) 
Heartbeat CPU  0 instructions:  398000000 cycles: 1111604390 heartbeat IPC: 0.45241 cumulative IPC: 0.28541 (Simulation time: 0 hr 14 min 44 sec) 
Heartbeat CPU  0 instructions:  399000001 cycles: 1115297691 heartbeat IPC: 0.27076 cumulative IPC: 0.28536 (Simulation time: 0 hr 14 min 47 sec) 
Heartbeat CPU  0 instructions:  400000000 cycles: 1119587582 heartbeat IPC: 0.23311 cumulative IPC: 0.28514 (Simulation time: 0 hr 14 min 49 sec) 
Heartbeat CPU  0 instructions:  401000000 cycles: 1123033341 heartbeat IPC: 0.29021 cumulative IPC: 0.28516 (Simulation time: 0 hr 14 min 52 sec) 
Heartbeat CPU  0 instructions:  402000000 cycles: 1126656169 heartbeat IPC: 0.27603 cumulative IPC: 0.28513 (Simulation time: 0 hr 14 min 55 sec) 
Heartbeat CPU  0 instructions:  403000000 cycles: 1130384131 heartbeat IPC: 0.26824 cumulative IPC: 0.28507 (Simulation time: 0 hr 14 min 57 sec) 
Heartbeat CPU  0 instructions:  404000000 cycles: 1132341064 heartbeat IPC: 0.51100 cumulative IPC: 0.28548 (Simulation time: 0 hr 14 min 59 sec) 
Heartbeat CPU  0 instructions:  405000002 cycles: 1138257081 heartbeat IPC: 0.16903 cumulative IPC: 0.28484 (Simulation time: 0 hr 15 min 3 sec) 
Heartbeat CPU  0 instructions:  406000000 cycles: 1141577567 heartbeat IPC: 0.30116 cumulative IPC: 0.28489 (Simulation time: 0 hr 15 min 5 sec) 
Heartbeat CPU  0 instructions:  407000000 cycles: 1143751373 heartbeat IPC: 0.46002 cumulative IPC: 0.28525 (Simulation time: 0 hr 15 min 7 sec) 
Heartbeat CPU  0 instructions:  408000000 cycles: 1146018524 heartbeat IPC: 0.44108 cumulative IPC: 0.28557 (Simulation time: 0 hr 15 min 9 sec) 
Heartbeat CPU  0 instructions:  409000002 cycles: 1149633935 heartbeat IPC: 0.27659 cumulative IPC: 0.28554 (Simulation time: 0 hr 15 min 11 sec) 
Heartbeat CPU  0 instructions:  410000000 cycles: 1154033303 heartbeat IPC: 0.22730 cumulative IPC: 0.28531 (Simulation time: 0 hr 15 min 13 sec) 
Heartbeat CPU  0 instructions:  411000002 cycles: 1157480874 heartbeat IPC: 0.29006 cumulative IPC: 0.28532 (Simulation time: 0 hr 15 min 16 sec) 
Heartbeat CPU  0 instructions:  412000000 cycles: 1161021740 heartbeat IPC: 0.28242 cumulative IPC: 0.28531 (Simulation time: 0 hr 15 min 19 sec) 
Heartbeat CPU  0 instructions:  413000001 cycles: 1164743681 heartbeat IPC: 0.26868 cumulative IPC: 0.28526 (Simulation time: 0 hr 15 min 22 sec) 
Heartbeat CPU  0 instructions:  414000000 cycles: 1166792618 heartbeat IPC: 0.48806 cumulative IPC: 0.28563 (Simulation time: 0 hr 15 min 24 sec) 
Heartbeat CPU  0 instructions:  415000003 cycles: 1172680858 heartbeat IPC: 0.16983 cumulative IPC: 0.28502 (Simulation time: 0 hr 15 min 28 sec) 
Heartbeat CPU  0 instructions:  416000000 cycles: 1175891456 heartbeat IPC: 0.31147 cumulative IPC: 0.28509 (Simulation time: 0 hr 15 min 30 sec) 
Heartbeat CPU  0 instructions:  417000000 cycles: 1178044968 heartbeat IPC: 0.46436 cumulative IPC: 0.28544 (Simulation time: 0 hr 15 min 31 sec) 
Heartbeat CPU  0 instructions:  418000000 cycles: 1180366729 heartbeat IPC: 0.43071 cumulative IPC: 0.28574 (Simulation time: 0 hr 15 min 33 sec) 
Heartbeat CPU  0 instructions:  419000001 cycles: 1183891869 heartbeat IPC: 0.28368 cumulative IPC: 0.28574 (Simulation time: 0 hr 15 min 36 sec) 
Heartbeat CPU  0 instructions:  420000000 cycles: 1188446224 heartbeat IPC: 0.21957 cumulative IPC: 0.28547 (Simulation time: 0 hr 15 min 38 sec) 
Heartbeat CPU  0 instructions:  421000000 cycles: 1191912419 heartbeat IPC: 0.28850 cumulative IPC: 0.28548 (Simulation time: 0 hr 15 min 41 sec) 
Heartbeat CPU  0 instructions:  422000003 cycles: 1195360153 heartbeat IPC: 0.29005 cumulative IPC: 0.28549 (Simulation time: 0 hr 15 min 44 sec) 
Heartbeat CPU  0 instructions:  423000003 cycles: 1199101170 heartbeat IPC: 0.26731 cumulative IPC: 0.28543 (Simulation time: 0 hr 15 min 46 sec) 
Heartbeat CPU  0 instructions:  424000000 cycles: 1201231191 heartbeat IPC: 0.46948 cumulative IPC: 0.28578 (Simulation time: 0 hr 15 min 49 sec) 
Heartbeat CPU  0 instructions:  425000001 cycles: 1207110922 heartbeat IPC: 0.17008 cumulative IPC: 0.28518 (Simulation time: 0 hr 15 min 52 sec) 
Heartbeat CPU  0 instructions:  426000002 cycles: 1210228687 heartbeat IPC: 0.32074 cumulative IPC: 0.28528 (Simulation time: 0 hr 15 min 54 sec) 
Heartbeat CPU  0 instructions:  427000002 cycles: 1212373418 heartbeat IPC: 0.46626 cumulative IPC: 0.28562 (Simulation time: 0 hr 15 min 56 sec) 
Heartbeat CPU  0 instructions:  428000000 cycles: 1214736438 heartbeat IPC: 0.42319 cumulative IPC: 0.28590 (Simulation time: 0 hr 15 min 58 sec) 
Heartbeat CPU  0 instructions:  429000001 cycles: 1218181516 heartbeat IPC: 0.29027 cumulative IPC: 0.28591 (Simulation time: 0 hr 16 min 0 sec) 
Heartbeat CPU  0 instructions:  430000002 cycles: 1222824018 heartbeat IPC: 0.21540 cumulative IPC: 0.28563 (Simulation time: 0 hr 16 min 2 sec) 
Heartbeat CPU  0 instructions:  431000003 cycles: 1226272759 heartbeat IPC: 0.28996 cumulative IPC: 0.28564 (Simulation time: 0 hr 16 min 5 sec) 
Heartbeat CPU  0 instructions:  432000000 cycles: 1229112507 heartbeat IPC: 0.35214 cumulative IPC: 0.28581 (Simulation time: 0 hr 16 min 8 sec) 
Heartbeat CPU  0 instructions:  433000001 cycles: 1234813469 heartbeat IPC: 0.17541 cumulative IPC: 0.28527 (Simulation time: 0 hr 16 min 11 sec) 
Heartbeat CPU  0 instructions:  434000000 cycles: 1240872662 heartbeat IPC: 0.16504 cumulative IPC: 0.28465 (Simulation time: 0 hr 16 min 14 sec) 
Heartbeat CPU  0 instructions:  435000001 cycles: 1244592723 heartbeat IPC: 0.26881 cumulative IPC: 0.28460 (Simulation time: 0 hr 16 min 17 sec) 
Heartbeat CPU  0 instructions:  436000000 cycles: 1249629193 heartbeat IPC: 0.19855 cumulative IPC: 0.28423 (Simulation time: 0 hr 16 min 21 sec) 
Heartbeat CPU  0 instructions:  437000002 cycles: 1254153584 heartbeat IPC: 0.22102 cumulative IPC: 0.28399 (Simulation time: 0 hr 16 min 24 sec) 
Heartbeat CPU  0 instructions:  438000002 cycles: 1258305660 heartbeat IPC: 0.24084 cumulative IPC: 0.28384 (Simulation time: 0 hr 16 min 27 sec) 
Heartbeat CPU  0 instructions:  439000000 cycles: 1263040122 heartbeat IPC: 0.21122 cumulative IPC: 0.28355 (Simulation time: 0 hr 16 min 30 sec) 
Heartbeat CPU  0 instructions:  440000000 cycles: 1267042115 heartbeat IPC: 0.24988 cumulative IPC: 0.28344 (Simulation time: 0 hr 16 min 33 sec) 
Heartbeat CPU  0 instructions:  441000000 cycles: 1271024577 heartbeat IPC: 0.25110 cumulative IPC: 0.28333 (Simulation time: 0 hr 16 min 36 sec) 
Heartbeat CPU  0 instructions:  442000000 cycles: 1274015342 heartbeat IPC: 0.33436 cumulative IPC: 0.28346 (Simulation time: 0 hr 16 min 38 sec) 
Heartbeat CPU  0 instructions:  443000002 cycles: 1276964814 heartbeat IPC: 0.33904 cumulative IPC: 0.28359 (Simulation time: 0 hr 16 min 40 sec) 
Heartbeat CPU  0 instructions:  444000000 cycles: 1279147069 heartbeat IPC: 0.45824 cumulative IPC: 0.28391 (Simulation time: 0 hr 16 min 43 sec) 
Heartbeat CPU  0 instructions:  445000002 cycles: 1281592832 heartbeat IPC: 0.40887 cumulative IPC: 0.28416 (Simulation time: 0 hr 16 min 45 sec) 
Heartbeat CPU  0 instructions:  446000001 cycles: 1283290325 heartbeat IPC: 0.58910 cumulative IPC: 0.28459 (Simulation time: 0 hr 16 min 47 sec) 
Heartbeat CPU  0 instructions:  447000001 cycles: 1286261956 heartbeat IPC: 0.33652 cumulative IPC: 0.28471 (Simulation time: 0 hr 16 min 50 sec) 
Heartbeat CPU  0 instructions:  448000000 cycles: 1290784519 heartbeat IPC: 0.22111 cumulative IPC: 0.28448 (Simulation time: 0 hr 16 min 53 sec) 
Heartbeat CPU  0 instructions:  449000003 cycles: 1294585797 heartbeat IPC: 0.26307 cumulative IPC: 0.28441 (Simulation time: 0 hr 16 min 56 sec) 
Heartbeat CPU  0 instructions:  450000000 cycles: 1297787839 heartbeat IPC: 0.31230 cumulative IPC: 0.28448 (Simulation time: 0 hr 16 min 58 sec) 
Heartbeat CPU  0 instructions:  451000003 cycles: 1301038671 heartbeat IPC: 0.30761 cumulative IPC: 0.28454 (Simulation time: 0 hr 17 min 1 sec) 
Heartbeat CPU  0 instructions:  452000000 cycles: 1303960746 heartbeat IPC: 0.34222 cumulative IPC: 0.28468 (Simulation time: 0 hr 17 min 4 sec) 
Heartbeat CPU  0 instructions:  453000003 cycles: 1308263473 heartbeat IPC: 0.23241 cumulative IPC: 0.28450 (Simulation time: 0 hr 17 min 7 sec) 
Heartbeat CPU  0 instructions:  454000000 cycles: 1312942444 heartbeat IPC: 0.21372 cumulative IPC: 0.28423 (Simulation time: 0 hr 17 min 10 sec) 
Heartbeat CPU  0 instructions:  455000000 cycles: 1315150488 heartbeat IPC: 0.45289 cumulative IPC: 0.28453 (Simulation time: 0 hr 17 min 11 sec) 
Heartbeat CPU  0 instructions:  456000000 cycles: 1317025122 heartbeat IPC: 0.53344 cumulative IPC: 0.28490 (Simulation time: 0 hr 17 min 13 sec) 
Heartbeat CPU  0 instructions:  457000002 cycles: 1320445107 heartbeat IPC: 0.29240 cumulative IPC: 0.28493 (Simulation time: 0 hr 17 min 15 sec) 
Heartbeat CPU  0 instructions:  458000002 cycles: 1324277311 heartbeat IPC: 0.26095 cumulative IPC: 0.28485 (Simulation time: 0 hr 17 min 18 sec) 
Heartbeat CPU  0 instructions:  459000000 cycles: 1328102199 heartbeat IPC: 0.26145 cumulative IPC: 0.28478 (Simulation time: 0 hr 17 min 20 sec) 
Heartbeat CPU  0 instructions:  460000000 cycles: 1332643054 heartbeat IPC: 0.22022 cumulative IPC: 0.28455 (Simulation time: 0 hr 17 min 23 sec) 
Heartbeat CPU  0 instructions:  461000001 cycles: 1336340991 heartbeat IPC: 0.27042 cumulative IPC: 0.28451 (Simulation time: 0 hr 17 min 26 sec) 
Heartbeat CPU  0 instructions:  462000001 cycles: 1338503962 heartbeat IPC: 0.46233 cumulative IPC: 0.28481 (Simulation time: 0 hr 17 min 28 sec) 
Heartbeat CPU  0 instructions:  463000000 cycles: 1343941936 heartbeat IPC: 0.18389 cumulative IPC: 0.28438 (Simulation time: 0 hr 17 min 32 sec) 
Heartbeat CPU  0 instructions:  464000000 cycles: 1347762082 heartbeat IPC: 0.26177 cumulative IPC: 0.28431 (Simulation time: 0 hr 17 min 34 sec) 
Heartbeat CPU  0 instructions:  465000002 cycles: 1349958535 heartbeat IPC: 0.45528 cumulative IPC: 0.28461 (Simulation time: 0 hr 17 min 36 sec) 
Heartbeat CPU  0 instructions:  466000002 cycles: 1351873332 heartbeat IPC: 0.52225 cumulative IPC: 0.28496 (Simulation time: 0 hr 17 min 37 sec) 
Heartbeat CPU  0 instructions:  467000001 cycles: 1355729253 heartbeat IPC: 0.25934 cumulative IPC: 0.28488 (Simulation time: 0 hr 17 min 40 sec) 
Heartbeat CPU  0 instructions:  468000000 cycles: 1359759294 heartbeat IPC: 0.24814 cumulative IPC: 0.28477 (Simulation time: 0 hr 17 min 42 sec) 
Heartbeat CPU  0 instructions:  469000000 cycles: 1363060084 heartbeat IPC: 0.30296 cumulative IPC: 0.28482 (Simulation time: 0 hr 17 min 45 sec) 
Heartbeat CPU  0 instructions:  470000000 cycles: 1367071562 heartbeat IPC: 0.24928 cumulative IPC: 0.28471 (Simulation time: 0 hr 17 min 48 sec) 
Heartbeat CPU  0 instructions:  471000001 cycles: 1370866769 heartbeat IPC: 0.26349 cumulative IPC: 0.28464 (Simulation time: 0 hr 17 min 51 sec) 
Heartbeat CPU  0 instructions:  472000000 cycles: 1372885433 heartbeat IPC: 0.49538 cumulative IPC: 0.28497 (Simulation time: 0 hr 17 min 53 sec) 
Heartbeat CPU  0 instructions:  473000003 cycles: 1378442114 heartbeat IPC: 0.17996 cumulative IPC: 0.28453 (Simulation time: 0 hr 17 min 57 sec) 
Heartbeat CPU  0 instructions:  474000001 cycles: 1382173606 heartbeat IPC: 0.26799 cumulative IPC: 0.28448 (Simulation time: 0 hr 17 min 59 sec) 
Heartbeat CPU  0 instructions:  475000000 cycles: 1384366590 heartbeat IPC: 0.45600 cumulative IPC: 0.28476 (Simulation time: 0 hr 18 min 0 sec) 
Heartbeat CPU  0 instructions:  476000000 cycles: 1386378820 heartbeat IPC: 0.49696 cumulative IPC: 0.28509 (Simulation time: 0 hr 18 min 2 sec) 
Heartbeat CPU  0 instructions:  477000003 cycles: 1390202963 heartbeat IPC: 0.26150 cumulative IPC: 0.28502 (Simulation time: 0 hr 18 min 5 sec) 
Heartbeat CPU  0 instructions:  478000000 cycles: 1394260683 heartbeat IPC: 0.24644 cumulative IPC: 0.28490 (Simulation time: 0 hr 18 min 7 sec) 
Heartbeat CPU  0 instructions:  479000001 cycles: 1397602171 heartbeat IPC: 0.29927 cumulative IPC: 0.28494 (Simulation time: 0 hr 18 min 10 sec) 
Heartbeat CPU  0 instructions:  480000000 cycles: 1401498520 heartbeat IPC: 0.25665 cumulative IPC: 0.28485 (Simulation time: 0 hr 18 min 12 sec) 
Heartbeat CPU  0 instructions:  481000002 cycles: 1405264585 heartbeat IPC: 0.26553 cumulative IPC: 0.28480 (Simulation time: 0 hr 18 min 15 sec) 
Heartbeat CPU  0 instructions:  482000003 cycles: 1407231561 heartbeat IPC: 0.50840 cumulative IPC: 0.28513 (Simulation time: 0 hr 18 min 17 sec) 
Heartbeat CPU  0 instructions:  483000000 cycles: 1412953059 heartbeat IPC: 0.17478 cumulative IPC: 0.28466 (Simulation time: 0 hr 18 min 21 sec) 
Heartbeat CPU  0 instructions:  484000000 cycles: 1416553868 heartbeat IPC: 0.27772 cumulative IPC: 0.28464 (Simulation time: 0 hr 18 min 24 sec) 
Heartbeat CPU  0 instructions:  485000000 cycles: 1418739560 heartbeat IPC: 0.45752 cumulative IPC: 0.28492 (Simulation time: 0 hr 18 min 25 sec) 
Heartbeat CPU  0 instructions:  486000003 cycles: 1420827978 heartbeat IPC: 0.47883 cumulative IPC: 0.28522 (Simulation time: 0 hr 18 min 27 sec) 
Heartbeat CPU  0 instructions:  487000000 cycles: 1424594163 heartbeat IPC: 0.26552 cumulative IPC: 0.28517 (Simulation time: 0 hr 18 min 29 sec) 
Heartbeat CPU  0 instructions:  488000000 cycles: 1428748111 heartbeat IPC: 0.24073 cumulative IPC: 0.28503 (Simulation time: 0 hr 18 min 31 sec) 
Heartbeat CPU  0 instructions:  489000000 cycles: 1432138840 heartbeat IPC: 0.29492 cumulative IPC: 0.28505 (Simulation time: 0 hr 18 min 34 sec) 
Heartbeat CPU  0 instructions:  490000002 cycles: 1435913906 heartbeat IPC: 0.26490 cumulative IPC: 0.28500 (Simulation time: 0 hr 18 min 37 sec) 
Heartbeat CPU  0 instructions:  491000002 cycles: 1439635107 heartbeat IPC: 0.26873 cumulative IPC: 0.28495 (Simulation time: 0 hr 18 min 40 sec) 
Heartbeat CPU  0 instructions:  492000000 cycles: 1441551142 heartbeat IPC: 0.52191 cumulative IPC: 0.28528 (Simulation time: 0 hr 18 min 42 sec) 
Heartbeat CPU  0 instructions:  493000003 cycles: 1447436213 heartbeat IPC: 0.16992 cumulative IPC: 0.28479 (Simulation time: 0 hr 18 min 46 sec) 
Heartbeat CPU  0 instructions:  494000000 cycles: 1450907400 heartbeat IPC: 0.28809 cumulative IPC: 0.28480 (Simulation time: 0 hr 18 min 48 sec) 
Heartbeat CPU  0 instructions:  495000000 cycles: 1453090715 heartbeat IPC: 0.45802 cumulative IPC: 0.28507 (Simulation time: 0 hr 18 min 49 sec) 
Heartbeat CPU  0 instructions:  496000000 cycles: 1455257120 heartbeat IPC: 0.46159 cumulative IPC: 0.28535 (Simulation time: 0 hr 18 min 51 sec) 
Heartbeat CPU  0 instructions:  497000000 cycles: 1458978279 heartbeat IPC: 0.26873 cumulative IPC: 0.28531 (Simulation time: 0 hr 18 min 54 sec) 
Heartbeat CPU  0 instructions:  498000000 cycles: 1463208889 heartbeat IPC: 0.23637 cumulative IPC: 0.28516 (Simulation time: 0 hr 18 min 56 sec) 
Heartbeat CPU  0 instructions:  499000001 cycles: 1466637173 heartbeat IPC: 0.29169 cumulative IPC: 0.28517 (Simulation time: 0 hr 18 min 59 sec) 
Heartbeat CPU  0 instructions:  500000000 cycles: 1470312621 heartbeat IPC: 0.27208 cumulative IPC: 0.28514 (Simulation time: 0 hr 19 min 2 sec) 
Heartbeat CPU  0 instructions:  501000000 cycles: 1474032144 heartbeat IPC: 0.26885 cumulative IPC: 0.28510 (Simulation time: 0 hr 19 min 4 sec) 
Heartbeat CPU  0 instructions:  502000003 cycles: 1475921156 heartbeat IPC: 0.52938 cumulative IPC: 0.28542 (Simulation time: 0 hr 19 min 6 sec) 
Heartbeat CPU  0 instructions:  503000003 cycles: 1481883420 heartbeat IPC: 0.16772 cumulative IPC: 0.28493 (Simulation time: 0 hr 19 min 10 sec) 
Heartbeat CPU  0 instructions:  504000000 cycles: 1485254840 heartbeat IPC: 0.29661 cumulative IPC: 0.28495 (Simulation time: 0 hr 19 min 12 sec) 
Heartbeat CPU  0 instructions:  505000000 cycles: 1487433655 heartbeat IPC: 0.45897 cumulative IPC: 0.28522 (Simulation time: 0 hr 19 min 14 sec) 
Heartbeat CPU  0 instructions:  506000000 cycles: 1489667260 heartbeat IPC: 0.44771 cumulative IPC: 0.28548 (Simulation time: 0 hr 19 min 16 sec) 
Heartbeat CPU  0 instructions:  507000002 cycles: 1493338928 heartbeat IPC: 0.27236 cumulative IPC: 0.28544 (Simulation time: 0 hr 19 min 18 sec) 
Heartbeat CPU  0 instructions:  508000000 cycles: 1497671027 heartbeat IPC: 0.23083 cumulative IPC: 0.28528 (Simulation time: 0 hr 19 min 20 sec) 
Heartbeat CPU  0 instructions:  509000001 cycles: 1501101358 heartbeat IPC: 0.29152 cumulative IPC: 0.28529 (Simulation time: 0 hr 19 min 23 sec) 
Heartbeat CPU  0 instructions:  510000003 cycles: 1504695589 heartbeat IPC: 0.27822 cumulative IPC: 0.28527 (Simulation time: 0 hr 19 min 26 sec) 
Heartbeat CPU  0 instructions:  511000000 cycles: 1508425544 heartbeat IPC: 0.26810 cumulative IPC: 0.28523 (Simulation time: 0 hr 19 min 29 sec) 
Heartbeat CPU  0 instructions:  512000000 cycles: 1510424873 heartbeat IPC: 0.50017 cumulative IPC: 0.28553 (Simulation time: 0 hr 19 min 31 sec) 
Heartbeat CPU  0 instructions:  513000001 cycles: 1516333836 heartbeat IPC: 0.16923 cumulative IPC: 0.28505 (Simulation time: 0 hr 19 min 35 sec) 
Heartbeat CPU  0 instructions:  514000000 cycles: 1519597315 heartbeat IPC: 0.30642 cumulative IPC: 0.28510 (Simulation time: 0 hr 19 min 37 sec) 
Heartbeat CPU  0 instructions:  515000000 cycles: 1521761680 heartbeat IPC: 0.46203 cumulative IPC: 0.28537 (Simulation time: 0 hr 19 min 38 sec) 
Heartbeat CPU  0 instructions:  516000000 cycles: 1524051305 heartbeat IPC: 0.43675 cumulative IPC: 0.28560 (Simulation time: 0 hr 19 min 40 sec) 
Heartbeat CPU  0 instructions:  517000001 cycles: 1527619951 heartbeat IPC: 0.28022 cumulative IPC: 0.28559 (Simulation time: 0 hr 19 min 43 sec) 
Heartbeat CPU  0 instructions:  518000001 cycles: 1532093678 heartbeat IPC: 0.22353 cumulative IPC: 0.28540 (Simulation time: 0 hr 19 min 45 sec) 
Heartbeat CPU  0 instructions:  519000002 cycles: 1535552971 heartbeat IPC: 0.28908 cumulative IPC: 0.28541 (Simulation time: 0 hr 19 min 48 sec) 
Heartbeat CPU  0 instructions:  520000000 cycles: 1539030040 heartbeat IPC: 0.28760 cumulative IPC: 0.28541 (Simulation time: 0 hr 19 min 50 sec) 
Heartbeat CPU  0 instructions:  521000000 cycles: 1542763452 heartbeat IPC: 0.26785 cumulative IPC: 0.28537 (Simulation time: 0 hr 19 min 53 sec) 
Heartbeat CPU  0 instructions:  522000002 cycles: 1544850453 heartbeat IPC: 0.47916 cumulative IPC: 0.28564 (Simulation time: 0 hr 19 min 55 sec) 
Heartbeat CPU  0 instructions:  523000003 cycles: 1550735498 heartbeat IPC: 0.16992 cumulative IPC: 0.28518 (Simulation time: 0 hr 19 min 59 sec) 
Heartbeat CPU  0 instructions:  524000000 cycles: 1553901798 heartbeat IPC: 0.31583 cumulative IPC: 0.28525 (Simulation time: 0 hr 20 min 1 sec) 
Heartbeat CPU  0 instructions:  525000003 cycles: 1556055833 heartbeat IPC: 0.46425 cumulative IPC: 0.28551 (Simulation time: 0 hr 20 min 3 sec) 
Heartbeat CPU  0 instructions:  526000002 cycles: 1558397836 heartbeat IPC: 0.42698 cumulative IPC: 0.28573 (Simulation time: 0 hr 20 min 4 sec) 
Heartbeat CPU  0 instructions:  527000001 cycles: 1561884698 heartbeat IPC: 0.28679 cumulative IPC: 0.28573 (Simulation time: 0 hr 20 min 7 sec) 
Heartbeat CPU  0 instructions:  528000000 cycles: 1566496151 heartbeat IPC: 0.21685 cumulative IPC: 0.28552 (Simulation time: 0 hr 20 min 9 sec) 
Heartbeat CPU  0 instructions:  529000001 cycles: 1569953650 heartbeat IPC: 0.28923 cumulative IPC: 0.28553 (Simulation time: 0 hr 20 min 12 sec) 
Heartbeat CPU  0 instructions:  530000001 cycles: 1573367138 heartbeat IPC: 0.29296 cumulative IPC: 0.28555 (Simulation time: 0 hr 20 min 15 sec) 
Heartbeat CPU  0 instructions:  531000000 cycles: 1577070433 heartbeat IPC: 0.27003 cumulative IPC: 0.28551 (Simulation time: 0 hr 20 min 17 sec) 
Heartbeat CPU  0 instructions:  532000000 cycles: 1579248473 heartbeat IPC: 0.45913 cumulative IPC: 0.28576 (Simulation time: 0 hr 20 min 20 sec) 
Heartbeat CPU  0 instructions:  533000002 cycles: 1585135040 heartbeat IPC: 0.16988 cumulative IPC: 0.28531 (Simulation time: 0 hr 20 min 24 sec) 
Heartbeat CPU  0 instructions:  534000001 cycles: 1588198577 heartbeat IPC: 0.32642 cumulative IPC: 0.28539 (Simulation time: 0 hr 20 min 26 sec) 
Heartbeat CPU  0 instructions:  535000003 cycles: 1590344692 heartbeat IPC: 0.46596 cumulative IPC: 0.28565 (Simulation time: 0 hr 20 min 27 sec) 
Heartbeat CPU  0 instructions:  536000000 cycles: 1592753787 heartbeat IPC: 0.41509 cumulative IPC: 0.28585 (Simulation time: 0 hr 20 min 29 sec) 
Heartbeat CPU  0 instructions:  537000001 cycles: 1596142767 heartbeat IPC: 0.29507 cumulative IPC: 0.28587 (Simulation time: 0 hr 20 min 31 sec) 
Heartbeat CPU  0 instructions:  538000002 cycles: 1600870033 heartbeat IPC: 0.21154 cumulative IPC: 0.28564 (Simulation time: 0 hr 20 min 34 sec) 
Heartbeat CPU  0 instructions:  539000000 cycles: 1604308109 heartbeat IPC: 0.29086 cumulative IPC: 0.28565 (Simulation time: 0 hr 20 min 37 sec) 
Heartbeat CPU  0 instructions:  540000000 cycles: 1607704854 heartbeat IPC: 0.29440 cumulative IPC: 0.28567 (Simulation time: 0 hr 20 min 39 sec) 
Heartbeat CPU  0 instructions:  541000002 cycles: 1611449646 heartbeat IPC: 0.26704 cumulative IPC: 0.28563 (Simulation time: 0 hr 20 min 42 sec) 
Heartbeat CPU  0 instructions:  542000002 cycles: 1613681623 heartbeat IPC: 0.44803 cumulative IPC: 0.28586 (Simulation time: 0 hr 20 min 44 sec) 
Heartbeat CPU  0 instructions:  543000002 cycles: 1619563354 heartbeat IPC: 0.17002 cumulative IPC: 0.28542 (Simulation time: 0 hr 20 min 48 sec) 
Heartbeat CPU  0 instructions:  544000000 cycles: 1622536100 heartbeat IPC: 0.33639 cumulative IPC: 0.28552 (Simulation time: 0 hr 20 min 50 sec) 
Heartbeat CPU  0 instructions:  545000000 cycles: 1624659967 heartbeat IPC: 0.47084 cumulative IPC: 0.28577 (Simulation time: 0 hr 20 min 52 sec) 
Heartbeat CPU  0 instructions:  546000002 cycles: 1627116408 heartbeat IPC: 0.40709 cumulative IPC: 0.28597 (Simulation time: 0 hr 20 min 53 sec) 
Heartbeat CPU  0 instructions:  547000001 cycles: 1630431331 heartbeat IPC: 0.30167 cumulative IPC: 0.28600 (Simulation time: 0 hr 20 min 56 sec) 
Heartbeat CPU  0 instructions:  548000000 cycles: 1635209319 heartbeat IPC: 0.20929 cumulative IPC: 0.28576 (Simulation time: 0 hr 20 min 58 sec) 
Heartbeat CPU  0 instructions:  549000001 cycles: 1638699137 heartbeat IPC: 0.28655 cumulative IPC: 0.28577 (Simulation time: 0 hr 21 min 1 sec) 
Heartbeat CPU  0 instructions:  550000001 cycles: 1641354917 heartbeat IPC: 0.37654 cumulative IPC: 0.28592 (Simulation time: 0 hr 21 min 4 sec) 
Heartbeat CPU  0 instructions:  551000000 cycles: 1647487966 heartbeat IPC: 0.16305 cumulative IPC: 0.28544 (Simulation time: 0 hr 21 min 7 sec) 
Heartbeat CPU  0 instructions:  552000000 cycles: 1653137659 heartbeat IPC: 0.17700 cumulative IPC: 0.28506 (Simulation time: 0 hr 21 min 10 sec) 
Heartbeat CPU  0 instructions:  553000001 cycles: 1657005063 heartbeat IPC: 0.25857 cumulative IPC: 0.28499 (Simulation time: 0 hr 21 min 13 sec) 
Heartbeat CPU  0 instructions:  554000002 cycles: 1662075396 heartbeat IPC: 0.19723 cumulative IPC: 0.28471 (Simulation time: 0 hr 21 min 17 sec) 
Heartbeat CPU  0 instructions:  555000003 cycles: 1666529575 heartbeat IPC: 0.22451 cumulative IPC: 0.28455 (Simulation time: 0 hr 21 min 20 sec) 
Heartbeat CPU  0 instructions:  556000000 cycles: 1670693857 heartbeat IPC: 0.24014 cumulative IPC: 0.28443 (Simulation time: 0 hr 21 min 23 sec) 
Heartbeat CPU  0 instructions:  557000000 cycles: 1675455460 heartbeat IPC: 0.21001 cumulative IPC: 0.28421 (Simulation time: 0 hr 21 min 26 sec) 
Heartbeat CPU  0 instructions:  558000001 cycles: 1679457241 heartbeat IPC: 0.24989 cumulative IPC: 0.28412 (Simulation time: 0 hr 21 min 29 sec) 
Heartbeat CPU  0 instructions:  559000000 cycles: 1683405864 heartbeat IPC: 0.25325 cumulative IPC: 0.28405 (Simulation time: 0 hr 21 min 31 sec) 
Heartbeat CPU  0 instructions:  560000000 cycles: 1686368549 heartbeat IPC: 0.33753 cumulative IPC: 0.28415 (Simulation time: 0 hr 21 min 34 sec) 
Heartbeat CPU  0 instructions:  561000001 cycles: 1689322372 heartbeat IPC: 0.33854 cumulative IPC: 0.28425 (Simulation time: 0 hr 21 min 36 sec) 
Heartbeat CPU  0 instructions:  562000000 cycles: 1691497111 heartbeat IPC: 0.45982 cumulative IPC: 0.28448 (Simulation time: 0 hr 21 min 39 sec) 
Heartbeat CPU  0 instructions:  563000002 cycles: 1693874674 heartbeat IPC: 0.42060 cumulative IPC: 0.28468 (Simulation time: 0 hr 21 min 41 sec) 
Heartbeat CPU  0 instructions:  564000000 cycles: 1695653194 heartbeat IPC: 0.56226 cumulative IPC: 0.28498 (Simulation time: 0 hr 21 min 43 sec) 
Heartbeat CPU  0 instructions:  565000000 cycles: 1698675503 heartbeat IPC: 0.33087 cumulative IPC: 0.28507 (Simulation time: 0 hr 21 min 46 sec) 
Heartbeat CPU  0 instructions:  566000001 cycles: 1703148296 heartbeat IPC: 0.22357 cumulative IPC: 0.28490 (Simulation time: 0 hr 21 min 49 sec) 
Heartbeat CPU  0 instructions:  567000000 cycles: 1706921040 heartbeat IPC: 0.26506 cumulative IPC: 0.28485 (Simulation time: 0 hr 21 min 52 sec) 
Heartbeat CPU  0 instructions:  568000000 cycles: 1710071766 heartbeat IPC: 0.31739 cumulative IPC: 0.28492 (Simulation time: 0 hr 21 min 54 sec) 
Heartbeat CPU  0 instructions:  569000000 cycles: 1713370191 heartbeat IPC: 0.30318 cumulative IPC: 0.28495 (Simulation time: 0 hr 21 min 57 sec) 
Heartbeat CPU  0 instructions:  570000000 cycles: 1716144341 heartbeat IPC: 0.36047 cumulative IPC: 0.28508 (Simulation time: 0 hr 22 min 0 sec) 
Heartbeat CPU  0 instructions:  571000000 cycles: 1720623456 heartbeat IPC: 0.22326 cumulative IPC: 0.28491 (Simulation time: 0 hr 22 min 3 sec) 
Heartbeat CPU  0 instructions:  572000000 cycles: 1725164666 heartbeat IPC: 0.22021 cumulative IPC: 0.28474 (Simulation time: 0 hr 22 min 6 sec) 
Heartbeat CPU  0 instructions:  573000002 cycles: 1727318427 heartbeat IPC: 0.46431 cumulative IPC: 0.28497 (Simulation time: 0 hr 22 min 7 sec) 
Heartbeat CPU  0 instructions:  574000002 cycles: 1729144081 heartbeat IPC: 0.54775 cumulative IPC: 0.28526 (Simulation time: 0 hr 22 min 9 sec) 
Heartbeat CPU  0 instructions:  575000000 cycles: 1732632396 heartbeat IPC: 0.28667 cumulative IPC: 0.28526 (Simulation time: 0 hr 22 min 11 sec) 
Heartbeat CPU  0 instructions:  576000000 cycles: 1736509462 heartbeat IPC: 0.25793 cumulative IPC: 0.28520 (Simulation time: 0 hr 22 min 13 sec) 
Heartbeat CPU  0 instructions:  577000000 cycles: 1740557739 heartbeat IPC: 0.24702 cumulative IPC: 0.28510 (Simulation time: 0 hr 22 min 16 sec) 
Heartbeat CPU  0 instructions:  578000002 cycles: 1745029025 heartbeat IPC: 0.22365 cumulative IPC: 0.28494 (Simulation time: 0 hr 22 min 19 sec) 
Heartbeat CPU  0 instructions:  579000002 cycles: 1750004812 heartbeat IPC: 0.20097 cumulative IPC: 0.28469 (Simulation time: 0 hr 22 min 23 sec) 
Heartbeat CPU  0 instructions:  580000000 cycles: 1753498318 heartbeat IPC: 0.28624 cumulative IPC: 0.28470 (Simulation time: 0 hr 22 min 26 sec) 
Heartbeat CPU  0 instructions:  581000000 cycles: 1756188239 heartbeat IPC: 0.37176 cumulative IPC: 0.28483 (Simulation time: 0 hr 22 min 28 sec) 
Heartbeat CPU  0 instructions:  582000002 cycles: 1762027619 heartbeat IPC: 0.17125 cumulative IPC: 0.28444 (Simulation time: 0 hr 22 min 32 sec) 
Heartbeat CPU  0 instructions:  583000000 cycles: 1764201898 heartbeat IPC: 0.45992 cumulative IPC: 0.28467 (Simulation time: 0 hr 22 min 33 sec) 
Heartbeat CPU  0 instructions:  584000000 cycles: 1766232147 heartbeat IPC: 0.49255 cumulative IPC: 0.28492 (Simulation time: 0 hr 22 min 35 sec) 
Heartbeat CPU  0 instructions:  585000000 cycles: 1768908749 heartbeat IPC: 0.37361 cumulative IPC: 0.28506 (Simulation time: 0 hr 22 min 37 sec) 
Heartbeat CPU  0 instructions:  586000001 cycles: 1772120160 heartbeat IPC: 0.31139 cumulative IPC: 0.28511 (Simulation time: 0 hr 22 min 39 sec) 
Heartbeat CPU  0 instructions:  587000002 cycles: 1776902262 heartbeat IPC: 0.20911 cumulative IPC: 0.28489 (Simulation time: 0 hr 22 min 42 sec) 
Heartbeat CPU  0 instructions:  588000000 cycles: 1780666329 heartbeat IPC: 0.26567 cumulative IPC: 0.28485 (Simulation time: 0 hr 22 min 45 sec) 
Heartbeat CPU  0 instructions:  589000001 cycles: 1783827102 heartbeat IPC: 0.31638 cumulative IPC: 0.28491 (Simulation time: 0 hr 22 min 47 sec) 
Heartbeat CPU  0 instructions:  590000000 cycles: 1787530105 heartbeat IPC: 0.27005 cumulative IPC: 0.28488 (Simulation time: 0 hr 22 min 50 sec) 
Heartbeat CPU  0 instructions:  591000000 cycles: 1789948694 heartbeat IPC: 0.41346 cumulative IPC: 0.28506 (Simulation time: 0 hr 22 min 52 sec) 
Heartbeat CPU  0 instructions:  592000000 cycles: 1795859439 heartbeat IPC: 0.16918 cumulative IPC: 0.28466 (Simulation time: 0 hr 22 min 56 sec) 
Heartbeat CPU  0 instructions:  593000003 cycles: 1798537287 heartbeat IPC: 0.37344 cumulative IPC: 0.28480 (Simulation time: 0 hr 22 min 58 sec) 
Heartbeat CPU  0 instructions:  594000003 cycles: 1800612561 heartbeat IPC: 0.48186 cumulative IPC: 0.28503 (Simulation time: 0 hr 22 min 59 sec) 
Heartbeat CPU  0 instructions:  595000003 cycles: 1803128655 heartbeat IPC: 0.39744 cumulative IPC: 0.28520 (Simulation time: 0 hr 23 min 1 sec) 
Heartbeat CPU  0 instructions:  596000000 cycles: 1806445421 heartbeat IPC: 0.30150 cumulative IPC: 0.28523 (Simulation time: 0 hr 23 min 4 sec) 
Heartbeat CPU  0 instructions:  597000002 cycles: 1811455756 heartbeat IPC: 0.19959 cumulative IPC: 0.28498 (Simulation time: 0 hr 23 min 6 sec) 
Heartbeat CPU  0 instructions:  598000003 cycles: 1814903804 heartbeat IPC: 0.29002 cumulative IPC: 0.28499 (Simulation time: 0 hr 23 min 9 sec) 
Heartbeat CPU  0 instructions:  599000003 cycles: 1818508528 heartbeat IPC: 0.27741 cumulative IPC: 0.28498 (Simulation time: 0 hr 23 min 12 sec) 
Heartbeat CPU  0 instructions:  600000000 cycles: 1822170706 heartbeat IPC: 0.27306 cumulative IPC: 0.28495 (Simulation time: 0 hr 23 min 14 sec) 
Finished CPU 0 instructions: 500000000 cycles: 1754685245 cumulative IPC: 0.28495 (Simulation time: 0 hr 23 min 14 sec) 

ChampSim completed all CPUs

[ROI Statistics]
Core_0_instructions 500000000
Core_0_cycles 1754685245
Core_0_IPC 0.28495

Core_0_branch_prediction_accuracy 95.09196
Core_0_branch_MPKI 8.72608
Core_0_average_ROB_occupancy_at_mispredict 83.05665

Core_0_L1D_total_access 101972718
Core_0_L1D_total_hit 75441816
Core_0_L1D_total_miss 26530902
Core_0_L1D_loads 75895491
Core_0_L1D_load_hit 53305297
Core_0_L1D_load_miss 22590194
Core_0_L1D_RFOs 26077227
Core_0_L1D_RFO_hit 22136519
Core_0_L1D_RFO_miss 3940708
Core_0_L1D_prefetches 0
Core_0_L1D_prefetch_hit 0
Core_0_L1D_prefetch_miss 0
Core_0_L1D_writebacks 0
Core_0_L1D_writeback_hit 0
Core_0_L1D_writeback_miss 0
Core_0_L1D_prefetch_requested 0
Core_0_L1D_prefetch_dropped 0
Core_0_L1D_prefetch_issued 0
Core_0_L1D_prefetch_filled 0
Core_0_L1D_prefetch_useful 0
Core_0_L1D_prefetch_useless 0
Core_0_L1D_prefetch_late 0
Core_0_L1D_average_miss_latency 137.96155

Core_0_L1D_rq_access 150257615
Core_0_L1D_rq_forward 0
Core_0_L1D_rq_merged 66335605
Core_0_L1D_rq_to_cache 83921974
Core_0_L1D_rq_full 0

Core_0_L1D_wq_access 35310153
Core_0_L1D_wq_forward 36
Core_0_L1D_wq_merged 34585
Core_0_L1D_wq_to_cache 35275568
Core_0_L1D_wq_full 6771292

Core_0_L1D_pq_access 0
Core_0_L1D_pq_forward 0
Core_0_L1D_pq_merged 0
Core_0_L1D_pq_to_cache 0
Core_0_L1D_pq_full 0

Core_0_L1D_acc_epochs 1730006
Core_0_L1D_acc_level_0 1730006
Core_0_L1D_acc_level_1 0
Core_0_L1D_acc_level_2 0
Core_0_L1D_acc_level_3 0
Core_0_L1D_acc_level_4 0
Core_0_L1D_acc_level_5 0
Core_0_L1D_acc_level_6 0
Core_0_L1D_acc_level_7 0
Core_0_L1D_acc_level_8 0
Core_0_L1D_acc_level_9 0

Core_0_L1I_total_access 104526627
Core_0_L1I_total_hit 104523429
Core_0_L1I_total_miss 3198
Core_0_L1I_loads 104526627
Core_0_L1I_load_hit 104523429
Core_0_L1I_load_miss 3198
Core_0_L1I_RFOs 0
Core_0_L1I_RFO_hit 0
Core_0_L1I_RFO_miss 0
Core_0_L1I_prefetches 0
Core_0_L1I_prefetch_hit 0
Core_0_L1I_prefetch_miss 0
Core_0_L1I_writebacks 0
Core_0_L1I_writeback_hit 0
Core_0_L1I_writeback_miss 0
Core_0_L1I_prefetch_requested 0
Core_0_L1I_prefetch_dropped 0
Core_0_L1I_prefetch_issued 0
Core_0_L1I_prefetch_filled 0
Core_0_L1I_prefetch_useful 0
Core_0_L1I_prefetch_useless 0
Core_0_L1I_prefetch_late 0
Core_0_L1I_average_miss_latency 258.99093

Core_0_L1I_rq_access 500000000
Core_0_L1I_rq_forward 0
Core_0_L1I_rq_merged 395470259
Core_0_L1I_rq_to_cache 104529741
Core_0_L1I_rq_full 0

Core_0_L1I_wq_access 0
Core_0_L1I_wq_forward 0
Core_0_L1I_wq_merged 0
Core_0_L1I_wq_to_cache 0
Core_0_L1I_wq_full 0

Core_0_L1I_pq_access 0
Core_0_L1I_pq_forward 0
Core_0_L1I_pq_merged 0
Core_0_L1I_pq_to_cache 0
Core_0_L1I_pq_full 0

Core_0_L1I_acc_epochs 1730006
Core_0_L1I_acc_level_0 1730006
Core_0_L1I_acc_level_1 0
Core_0_L1I_acc_level_2 0
Core_0_L1I_acc_level_3 0
Core_0_L1I_acc_level_4 0
Core_0_L1I_acc_level_5 0
Core_0_L1I_acc_level_6 0
Core_0_L1I_acc_level_7 0
Core_0_L1I_acc_level_8 0
Core_0_L1I_acc_level_9 0

Core_0_L2C_total_access 37475236
Core_0_L2C_total_hit 15764445
Core_0_L2C_total_miss 21710791
Core_0_L2C_loads 22590791
Core_0_L2C_load_hit 4316993
Core_0_L2C_load_miss 18273798
Core_0_L2C_RFOs 3940300
Core_0_L2C_RFO_hit 504175
Core_0_L2C_RFO_miss 3436125
Core_0_L2C_prefetches 0
Core_0_L2C_prefetch_hit 0
Core_0_L2C_prefetch_miss 0
Core_0_L2C_writebacks 10944145
Core_0_L2C_writeback_hit 10943277
Core_0_L2C_writeback_miss 868
Core_0_L2C_prefetch_requested 0
Core_0_L2C_prefetch_dropped 0
Core_0_L2C_prefetch_issued 0
Core_0_L2C_prefetch_filled 0
Core_0_L2C_prefetch_useful 0
Core_0_L2C_prefetch_useless 0
Core_0_L2C_prefetch_late 0
Core_0_L2C_average_miss_latency 150.23304

Core_0_L2C_rq_access 26534100
Core_0_L2C_rq_forward 0
Core_0_L2C_rq_merged 0
Core_0_L2C_rq_to_cache 26531091
Core_0_L2C_rq_full 0

Core_0_L2C_wq_access 10944145
Core_0_L2C_wq_forward 3009
Core_0_L2C_wq_merged 0
Core_0_L2C_wq_to_cache 10944145
Core_0_L2C_wq_full 0

Core_0_L2C_pq_access 0
Core_0_L2C_pq_forward 0
Core_0_L2C_pq_merged 0
Core_0_L2C_pq_to_cache 0
Core_0_L2C_pq_full 0

Core_0_L2C_acc_epochs 1730006
Core_0_L2C_acc_level_0 1730006
Core_0_L2C_acc_level_1 0
Core_0_L2C_acc_level_2 0
Core_0_L2C_acc_level_3 0
Core_0_L2C_acc_level_4 0
Core_0_L2C_acc_level_5 0
Core_0_L2C_acc_level_6 0
Core_0_L2C_acc_level_7 0
Core_0_L2C_acc_level_8 0
Core_0_L2C_acc_level_9 0

Core_0_LLC_total_access 29799813
Core_0_LLC_total_hit 14624310
Core_0_LLC_total_miss 15175503
Core_0_LLC_loads 18273698
Core_0_LLC_load_hit 7162176
Core_0_LLC_load_miss 11111522
Core_0_LLC_RFOs 3436098
Core_0_LLC_RFO_hit 950271
Core_0_LLC_RFO_miss 2485827
Core_0_LLC_prefetches 0
Core_0_LLC_prefetch_hit 0
Core_0_LLC_prefetch_miss 0
Core_0_LLC_writebacks 8090017
Core_0_LLC_writeback_hit 6511863
Core_0_LLC_writeback_miss 1578154
Core_0_LLC_prefetch_requested 0
Core_0_LLC_prefetch_dropped 0
Core_0_LLC_prefetch_issued 0
Core_0_LLC_prefetch_filled 0
Core_0_LLC_prefetch_useful 0
Core_0_LLC_prefetch_useless 0
Core_0_LLC_prefetch_late 0
Core_0_LLC_average_miss_latency 170.65433

Core_0_LLC_rq_access 21709923
Core_0_LLC_rq_forward 0
Core_0_LLC_rq_merged 0
Core_0_LLC_rq_to_cache 21709796
Core_0_LLC_rq_full 0

Core_0_LLC_wq_access 8090017
Core_0_LLC_wq_forward 127
Core_0_LLC_wq_merged 0
Core_0_LLC_wq_to_cache 8090017
Core_0_LLC_wq_full 0

Core_0_LLC_pq_access 0
Core_0_LLC_pq_forward 0
Core_0_LLC_pq_merged 0
Core_0_LLC_pq_to_cache 0
Core_0_LLC_pq_full 0

Core_0_LLC_acc_epochs 1779464
Core_0_LLC_acc_level_0 1779464
Core_0_LLC_acc_level_1 0
Core_0_LLC_acc_level_2 0
Core_0_LLC_acc_level_3 0
Core_0_LLC_acc_level_4 0
Core_0_LLC_acc_level_5 0
Core_0_LLC_acc_level_6 0
Core_0_LLC_acc_level_7 0
Core_0_LLC_acc_level_8 0
Core_0_LLC_acc_level_9 0

Core_0_major_page_fault 0
Core_0_minor_page_fault 12989

Channel_0_RQ_row_buffer_hit 4446727
Channel_0_RQ_row_buffer_miss 9148564
Channel_0_WQ_row_buffer_hit 1926055
Channel_0_WQ_row_buffer_miss 2527615
Channel_0_WQ_full 92670
Channel_0_dbus_congested 4813340

avg_congested_cycle 1

DRAM_bw_pochs 7117855
DRAM_bw_level_0 7096553
DRAM_bw_level_1 15472
DRAM_bw_level_2 5830
DRAM_bw_level_3 0
