*************************************************
   ChampSim Multicore Out-of-Order Simulator
   Last compiled: Dec 11 2024 17:59:53
*************************************************
parsing config file: /home/functionmain/桌面/Pythia/config/bingo.ini

trace_0 /home/functionmain/桌面/Pythia/traces/450.soplex-247B.champsimtrace.xz
adding L2C_PREFETCHER: Bingo
Initialize SHIP state
warmup_instructions 100000000
simulation_instructions 500000000
champsim_seed 223
measure_ipc 0
measure_ipc_epoch 1000
measure_dram_bw 1
measure_dram_bw_epoch 256
measure_cache_acc 1
measure_cache_acc_epoch 1024
l1d_perfect 0
l2c_perfect 0
llc_perfect 0
l1d_semi_perfect 0
l2c_semi_perfect 0
llc_semi_perfect 0
semi_perfect_cache_page_buffer_size 64

num_cpus 1
cpu_freq 4000
dram_io_freq 4800
page_size 4096
block_size 64
max_read_per_cycle 8
max_fill_per_cycle 1
dram_channels 1
log2_dram_channels 0
dram_ranks 1
dram_banks 8
dram_rows 65536
dram_columns 128
dram_row_size 8
dram_size 4096
dram_pages 1048576

fetch_width 6
decode_width 6
exec_width 4
lq_width 2
sq_width 2
retire_width 4
scheduler_size 128
branch_mispredict_penalty 20
rob_size 256
lq_size 72
sq_size 56
num_instr_destinations_sparc 4
num_instr_destinations 2
num_instr_sources 4

itlb_set 16
itlb_way 8
itlb_rq_size 16
itlb_wq_size 16
itlb_pq_size 0
itlb_mshr_size 8
itlb_latency 1

dtlb_set 16
dtlb_way 4
dtlb_rq_size 16
dtlb_wq_size 16
dtlb_pq_size 0
dtlb_mshr_size 8
dtlb_latency 1

stlb_set 128
stlb_way 12
stlb_rq_size 32
stlb_wq_size 32
stlb_pq_size 0
stlb_mshr_size 16
stlb_latency 8

l1i_size 32
l1i_set 64
l1i_way 8
l1i_rq_size 64
l1i_wq_size 64
l1i_pq_size 8
l1i_mshr_size 8
l1i_latency 1

l1d_size 32
l1d_set 64
l1d_way 8
l1d_rq_size 64
l1d_wq_size 64
l1d_pq_size 8
l1d_mshr_size 16
l1d_latency 4

l2c_size 256
l2c_set 512
l2c_way 8
l2c_rq_size 32
l2c_wq_size 32
l2c_pq_size 32
l2c_mshr_size 32
l2c_latency 10

llc_size 2048
llc_set 2048
llc_way 16
llc_rq_size 32
llc_wq_size 32
llc_pq_size 32
llc_mshr_size 64
llc_latency 20

dram_channel_width 8
dram_wq_size 64
dram_rq_size 64
tRP 15
tRCD 15
tCAS 12.5
dram_dbus_turn_around_time 30
dram_write_high_wm 56
dram_write_low_wm 48
min_dram_writes_per_switch 16
dram_mtps 4800
dram_dbus_return_time 6

bingo_region_size 2048
bingo_pattern_len 32
bingo_pc_width 16
bingo_min_addr_width 5
bingo_max_addr_width 16
bingo_ft_size 64
bingo_at_size 128
bingo_pht_size 4096
bingo_pht_ways 16
bingo_pf_streamer_size 128
bingo_debug_level 0
bingo_l1d_thresh 1.01
bingo_l2c_thresh 0.8
bingo_llc_thresh 0.05
bingo_pc_address_fill_level L2


Heartbeat CPU  0 instructions:    1000002 cycles:     757576 heartbeat IPC: 1.32000 cumulative IPC: 1.32000 (Simulation time: 0 hr 0 min 1 sec) 
Heartbeat CPU  0 instructions:    2000001 cycles:    1400497 heartbeat IPC: 1.55540 cumulative IPC: 1.42807 (Simulation time: 0 hr 0 min 3 sec) 
Heartbeat CPU  0 instructions:    3000001 cycles:    2125608 heartbeat IPC: 1.37910 cumulative IPC: 1.41136 (Simulation time: 0 hr 0 min 5 sec) 
Heartbeat CPU  0 instructions:    4000000 cycles:    2666661 heartbeat IPC: 1.84825 cumulative IPC: 1.50000 (Simulation time: 0 hr 0 min 6 sec) 
Heartbeat CPU  0 instructions:    5000000 cycles:    3572950 heartbeat IPC: 1.10340 cumulative IPC: 1.39940 (Simulation time: 0 hr 0 min 8 sec) 
Heartbeat CPU  0 instructions:    6000001 cycles:    4464275 heartbeat IPC: 1.12193 cumulative IPC: 1.34400 (Simulation time: 0 hr 0 min 10 sec) 
Heartbeat CPU  0 instructions:    7000000 cycles:    5262918 heartbeat IPC: 1.25212 cumulative IPC: 1.33006 (Simulation time: 0 hr 0 min 12 sec) 
Heartbeat CPU  0 instructions:    8000000 cycles:    5954641 heartbeat IPC: 1.44567 cumulative IPC: 1.34349 (Simulation time: 0 hr 0 min 13 sec) 
Heartbeat CPU  0 instructions:    9000001 cycles:    6571393 heartbeat IPC: 1.62140 cumulative IPC: 1.36957 (Simulation time: 0 hr 0 min 15 sec) 
Heartbeat CPU  0 instructions:   10000000 cycles:    7115118 heartbeat IPC: 1.83916 cumulative IPC: 1.40546 (Simulation time: 0 hr 0 min 16 sec) 
Heartbeat CPU  0 instructions:   11000001 cycles:    7707225 heartbeat IPC: 1.68889 cumulative IPC: 1.42723 (Simulation time: 0 hr 0 min 18 sec) 
Heartbeat CPU  0 instructions:   12000000 cycles:    8384205 heartbeat IPC: 1.47715 cumulative IPC: 1.43126 (Simulation time: 0 hr 0 min 19 sec) 
Heartbeat CPU  0 instructions:   13000000 cycles:    9264733 heartbeat IPC: 1.13568 cumulative IPC: 1.40317 (Simulation time: 0 hr 0 min 20 sec) 
Heartbeat CPU  0 instructions:   14000002 cycles:   10012534 heartbeat IPC: 1.33726 cumulative IPC: 1.39825 (Simulation time: 0 hr 0 min 21 sec) 
Heartbeat CPU  0 instructions:   15000002 cycles:   10614380 heartbeat IPC: 1.66155 cumulative IPC: 1.41318 (Simulation time: 0 hr 0 min 23 sec) 
Heartbeat CPU  0 instructions:   16000000 cycles:   11140757 heartbeat IPC: 1.89978 cumulative IPC: 1.43617 (Simulation time: 0 hr 0 min 24 sec) 
Heartbeat CPU  0 instructions:   17000000 cycles:   11953169 heartbeat IPC: 1.23090 cumulative IPC: 1.42222 (Simulation time: 0 hr 0 min 26 sec) 
Heartbeat CPU  0 instructions:   18000001 cycles:   12558139 heartbeat IPC: 1.65298 cumulative IPC: 1.43333 (Simulation time: 0 hr 0 min 28 sec) 
Heartbeat CPU  0 instructions:   19000001 cycles:   13095620 heartbeat IPC: 1.86053 cumulative IPC: 1.45087 (Simulation time: 0 hr 0 min 29 sec) 
Heartbeat CPU  0 instructions:   20000000 cycles:   13691553 heartbeat IPC: 1.67804 cumulative IPC: 1.46075 (Simulation time: 0 hr 0 min 30 sec) 
Heartbeat CPU  0 instructions:   21000001 cycles:   14349683 heartbeat IPC: 1.51946 cumulative IPC: 1.46345 (Simulation time: 0 hr 0 min 32 sec) 
Heartbeat CPU  0 instructions:   22000003 cycles:   15228483 heartbeat IPC: 1.13792 cumulative IPC: 1.44466 (Simulation time: 0 hr 0 min 33 sec) 
Heartbeat CPU  0 instructions:   23000001 cycles:   15994815 heartbeat IPC: 1.30491 cumulative IPC: 1.43797 (Simulation time: 0 hr 0 min 34 sec) 
Heartbeat CPU  0 instructions:   24000000 cycles:   16593412 heartbeat IPC: 1.67057 cumulative IPC: 1.44636 (Simulation time: 0 hr 0 min 35 sec) 
Heartbeat CPU  0 instructions:   25000000 cycles:   17133786 heartbeat IPC: 1.85057 cumulative IPC: 1.45911 (Simulation time: 0 hr 0 min 37 sec) 
Heartbeat CPU  0 instructions:   26000001 cycles:   17932440 heartbeat IPC: 1.25211 cumulative IPC: 1.44989 (Simulation time: 0 hr 0 min 39 sec) 
Heartbeat CPU  0 instructions:   27000003 cycles:   18507054 heartbeat IPC: 1.74030 cumulative IPC: 1.45890 (Simulation time: 0 hr 0 min 40 sec) 
Heartbeat CPU  0 instructions:   28000000 cycles:   19062741 heartbeat IPC: 1.79957 cumulative IPC: 1.46883 (Simulation time: 0 hr 0 min 42 sec) 
Heartbeat CPU  0 instructions:   29000002 cycles:   19618751 heartbeat IPC: 1.79853 cumulative IPC: 1.47818 (Simulation time: 0 hr 0 min 43 sec) 
Heartbeat CPU  0 instructions:   30000001 cycles:   20203847 heartbeat IPC: 1.70912 cumulative IPC: 1.48487 (Simulation time: 0 hr 0 min 45 sec) 
Heartbeat CPU  0 instructions:   31000002 cycles:   21073672 heartbeat IPC: 1.14966 cumulative IPC: 1.47103 (Simulation time: 0 hr 0 min 46 sec) 
Heartbeat CPU  0 instructions:   32000000 cycles:   21893954 heartbeat IPC: 1.21909 cumulative IPC: 1.46159 (Simulation time: 0 hr 0 min 47 sec) 
Heartbeat CPU  0 instructions:   33000000 cycles:   22492671 heartbeat IPC: 1.67024 cumulative IPC: 1.46714 (Simulation time: 0 hr 0 min 48 sec) 
Heartbeat CPU  0 instructions:   34000000 cycles:   23107302 heartbeat IPC: 1.62699 cumulative IPC: 1.47140 (Simulation time: 0 hr 0 min 50 sec) 
Heartbeat CPU  0 instructions:   35000000 cycles:   23831047 heartbeat IPC: 1.38170 cumulative IPC: 1.46867 (Simulation time: 0 hr 0 min 51 sec) 
Heartbeat CPU  0 instructions:   36000000 cycles:   24436244 heartbeat IPC: 1.65235 cumulative IPC: 1.47322 (Simulation time: 0 hr 0 min 53 sec) 
Heartbeat CPU  0 instructions:   37000001 cycles:   24974352 heartbeat IPC: 1.85836 cumulative IPC: 1.48152 (Simulation time: 0 hr 0 min 54 sec) 
Heartbeat CPU  0 instructions:   38000002 cycles:   25540420 heartbeat IPC: 1.76657 cumulative IPC: 1.48784 (Simulation time: 0 hr 0 min 56 sec) 
Heartbeat CPU  0 instructions:   39000001 cycles:   26120034 heartbeat IPC: 1.72528 cumulative IPC: 1.49311 (Simulation time: 0 hr 0 min 58 sec) 
Heartbeat CPU  0 instructions:   40000000 cycles:   26896058 heartbeat IPC: 1.28862 cumulative IPC: 1.48721 (Simulation time: 0 hr 0 min 59 sec) 
Heartbeat CPU  0 instructions:   41000001 cycles:   27761463 heartbeat IPC: 1.15553 cumulative IPC: 1.47687 (Simulation time: 0 hr 1 min 0 sec) 
Heartbeat CPU  0 instructions:   42000001 cycles:   28412439 heartbeat IPC: 1.53615 cumulative IPC: 1.47823 (Simulation time: 0 hr 1 min 1 sec) 
Heartbeat CPU  0 instructions:   43000000 cycles:   29049578 heartbeat IPC: 1.56951 cumulative IPC: 1.48023 (Simulation time: 0 hr 1 min 2 sec) 
Heartbeat CPU  0 instructions:   44000000 cycles:   29674645 heartbeat IPC: 1.59983 cumulative IPC: 1.48275 (Simulation time: 0 hr 1 min 4 sec) 
Heartbeat CPU  0 instructions:   45000000 cycles:   30405947 heartbeat IPC: 1.36742 cumulative IPC: 1.47997 (Simulation time: 0 hr 1 min 6 sec) 
Heartbeat CPU  0 instructions:   46000001 cycles:   30943490 heartbeat IPC: 1.86032 cumulative IPC: 1.48658 (Simulation time: 0 hr 1 min 7 sec) 
Heartbeat CPU  0 instructions:   47000000 cycles:   31501915 heartbeat IPC: 1.79075 cumulative IPC: 1.49197 (Simulation time: 0 hr 1 min 9 sec) 
Heartbeat CPU  0 instructions:   48000000 cycles:   32087421 heartbeat IPC: 1.70792 cumulative IPC: 1.49591 (Simulation time: 0 hr 1 min 10 sec) 
Heartbeat CPU  0 instructions:   49000001 cycles:   32827572 heartbeat IPC: 1.35108 cumulative IPC: 1.49265 (Simulation time: 0 hr 1 min 12 sec) 
Heartbeat CPU  0 instructions:   50000001 cycles:   33695126 heartbeat IPC: 1.15267 cumulative IPC: 1.48389 (Simulation time: 0 hr 1 min 13 sec) 
Heartbeat CPU  0 instructions:   51000003 cycles:   34388746 heartbeat IPC: 1.44171 cumulative IPC: 1.48304 (Simulation time: 0 hr 1 min 14 sec) 
Heartbeat CPU  0 instructions:   52000000 cycles:   34994123 heartbeat IPC: 1.65186 cumulative IPC: 1.48596 (Simulation time: 0 hr 1 min 15 sec) 
Heartbeat CPU  0 instructions:   53000000 cycles:   35571870 heartbeat IPC: 1.73086 cumulative IPC: 1.48994 (Simulation time: 0 hr 1 min 17 sec) 
Heartbeat CPU  0 instructions:   54000002 cycles:   36338425 heartbeat IPC: 1.30454 cumulative IPC: 1.48603 (Simulation time: 0 hr 1 min 19 sec) 
Heartbeat CPU  0 instructions:   55000001 cycles:   36911308 heartbeat IPC: 1.74556 cumulative IPC: 1.49006 (Simulation time: 0 hr 1 min 20 sec) 
Heartbeat CPU  0 instructions:   56000000 cycles:   37463341 heartbeat IPC: 1.81148 cumulative IPC: 1.49479 (Simulation time: 0 hr 1 min 22 sec) 
Heartbeat CPU  0 instructions:   57000002 cycles:   38050623 heartbeat IPC: 1.70276 cumulative IPC: 1.49800 (Simulation time: 0 hr 1 min 23 sec) 
Heartbeat CPU  0 instructions:   58000001 cycles:   38783811 heartbeat IPC: 1.36391 cumulative IPC: 1.49547 (Simulation time: 0 hr 1 min 25 sec) 
Heartbeat CPU  0 instructions:   59000001 cycles:   39653571 heartbeat IPC: 1.14974 cumulative IPC: 1.48789 (Simulation time: 0 hr 1 min 26 sec) 
Heartbeat CPU  0 instructions:   60000000 cycles:   40372469 heartbeat IPC: 1.39102 cumulative IPC: 1.48616 (Simulation time: 0 hr 1 min 27 sec) 
Heartbeat CPU  0 instructions:   61000003 cycles:   40985745 heartbeat IPC: 1.63059 cumulative IPC: 1.48832 (Simulation time: 0 hr 1 min 28 sec) 
Heartbeat CPU  0 instructions:   62000001 cycles:   41553348 heartbeat IPC: 1.76179 cumulative IPC: 1.49206 (Simulation time: 0 hr 1 min 29 sec) 
Heartbeat CPU  0 instructions:   63000000 cycles:   42346538 heartbeat IPC: 1.26073 cumulative IPC: 1.48772 (Simulation time: 0 hr 1 min 31 sec) 
Heartbeat CPU  0 instructions:   64000000 cycles:   42935658 heartbeat IPC: 1.69745 cumulative IPC: 1.49060 (Simulation time: 0 hr 1 min 33 sec) 
Heartbeat CPU  0 instructions:   65000003 cycles:   43484362 heartbeat IPC: 1.82248 cumulative IPC: 1.49479 (Simulation time: 0 hr 1 min 34 sec) 
Heartbeat CPU  0 instructions:   66000003 cycles:   44071519 heartbeat IPC: 1.70312 cumulative IPC: 1.49757 (Simulation time: 0 hr 1 min 36 sec) 
Heartbeat CPU  0 instructions:   67000000 cycles:   44760241 heartbeat IPC: 1.45196 cumulative IPC: 1.49686 (Simulation time: 0 hr 1 min 37 sec) 
Heartbeat CPU  0 instructions:   68000000 cycles:   45635591 heartbeat IPC: 1.14240 cumulative IPC: 1.49007 (Simulation time: 0 hr 1 min 38 sec) 
Heartbeat CPU  0 instructions:   69000001 cycles:   46386777 heartbeat IPC: 1.33123 cumulative IPC: 1.48749 (Simulation time: 0 hr 1 min 39 sec) 
Heartbeat CPU  0 instructions:   70000000 cycles:   47001329 heartbeat IPC: 1.62720 cumulative IPC: 1.48932 (Simulation time: 0 hr 1 min 41 sec) 
Heartbeat CPU  0 instructions:   71000002 cycles:   47532607 heartbeat IPC: 1.88226 cumulative IPC: 1.49371 (Simulation time: 0 hr 1 min 42 sec) 
Heartbeat CPU  0 instructions:   72000000 cycles:   48340394 heartbeat IPC: 1.23795 cumulative IPC: 1.48944 (Simulation time: 0 hr 1 min 44 sec) 
Heartbeat CPU  0 instructions:   73000001 cycles:   48936703 heartbeat IPC: 1.67698 cumulative IPC: 1.49172 (Simulation time: 0 hr 1 min 46 sec) 
Heartbeat CPU  0 instructions:   74000002 cycles:   49478888 heartbeat IPC: 1.84439 cumulative IPC: 1.49559 (Simulation time: 0 hr 1 min 47 sec) 
Heartbeat CPU  0 instructions:   75000003 cycles:   50075182 heartbeat IPC: 1.67703 cumulative IPC: 1.49775 (Simulation time: 0 hr 1 min 49 sec) 
Heartbeat CPU  0 instructions:   76000000 cycles:   50728203 heartbeat IPC: 1.53134 cumulative IPC: 1.49818 (Simulation time: 0 hr 1 min 50 sec) 
Heartbeat CPU  0 instructions:   77000001 cycles:   51601330 heartbeat IPC: 1.14531 cumulative IPC: 1.49221 (Simulation time: 0 hr 1 min 51 sec) 
Heartbeat CPU  0 instructions:   78000001 cycles:   52374567 heartbeat IPC: 1.29326 cumulative IPC: 1.48927 (Simulation time: 0 hr 1 min 52 sec) 
Heartbeat CPU  0 instructions:   79000003 cycles:   52987830 heartbeat IPC: 1.63063 cumulative IPC: 1.49091 (Simulation time: 0 hr 1 min 53 sec) 
Heartbeat CPU  0 instructions:   80000000 cycles:   53551734 heartbeat IPC: 1.77335 cumulative IPC: 1.49388 (Simulation time: 0 hr 1 min 55 sec) 
Heartbeat CPU  0 instructions:   81000001 cycles:   54338973 heartbeat IPC: 1.27026 cumulative IPC: 1.49064 (Simulation time: 0 hr 1 min 57 sec) 
Heartbeat CPU  0 instructions:   82000002 cycles:   54950641 heartbeat IPC: 1.63488 cumulative IPC: 1.49225 (Simulation time: 0 hr 1 min 58 sec) 
Heartbeat CPU  0 instructions:   83000003 cycles:   55510638 heartbeat IPC: 1.78573 cumulative IPC: 1.49521 (Simulation time: 0 hr 2 min 0 sec) 
Heartbeat CPU  0 instructions:   84000000 cycles:   56064977 heartbeat IPC: 1.80394 cumulative IPC: 1.49826 (Simulation time: 0 hr 2 min 1 sec) 
Heartbeat CPU  0 instructions:   85000001 cycles:   56649632 heartbeat IPC: 1.71041 cumulative IPC: 1.50045 (Simulation time: 0 hr 2 min 3 sec) 
Heartbeat CPU  0 instructions:   86000000 cycles:   57522914 heartbeat IPC: 1.14510 cumulative IPC: 1.49506 (Simulation time: 0 hr 2 min 4 sec) 
Heartbeat CPU  0 instructions:   87000000 cycles:   58349219 heartbeat IPC: 1.21021 cumulative IPC: 1.49102 (Simulation time: 0 hr 2 min 5 sec) 
Heartbeat CPU  0 instructions:   88000000 cycles:   58967727 heartbeat IPC: 1.61679 cumulative IPC: 1.49234 (Simulation time: 0 hr 2 min 6 sec) 
Heartbeat CPU  0 instructions:   89000003 cycles:   59603731 heartbeat IPC: 1.57232 cumulative IPC: 1.49320 (Simulation time: 0 hr 2 min 8 sec) 
Heartbeat CPU  0 instructions:   90000003 cycles:   60297666 heartbeat IPC: 1.44106 cumulative IPC: 1.49260 (Simulation time: 0 hr 2 min 9 sec) 
Heartbeat CPU  0 instructions:   91000001 cycles:   60972455 heartbeat IPC: 1.48194 cumulative IPC: 1.49248 (Simulation time: 0 hr 2 min 11 sec) 
Heartbeat CPU  0 instructions:   92000000 cycles:   61544837 heartbeat IPC: 1.74708 cumulative IPC: 1.49485 (Simulation time: 0 hr 2 min 13 sec) 
Heartbeat CPU  0 instructions:   93000001 cycles:   62090417 heartbeat IPC: 1.83291 cumulative IPC: 1.49782 (Simulation time: 0 hr 2 min 14 sec) 
Heartbeat CPU  0 instructions:   94000003 cycles:   62676882 heartbeat IPC: 1.70513 cumulative IPC: 1.49976 (Simulation time: 0 hr 2 min 16 sec) 
Heartbeat CPU  0 instructions:   95000003 cycles:   63514349 heartbeat IPC: 1.19408 cumulative IPC: 1.49573 (Simulation time: 0 hr 2 min 17 sec) 
Heartbeat CPU  0 instructions:   96000000 cycles:   64361475 heartbeat IPC: 1.18046 cumulative IPC: 1.49158 (Simulation time: 0 hr 2 min 18 sec) 
Heartbeat CPU  0 instructions:   97000002 cycles:   64996667 heartbeat IPC: 1.57433 cumulative IPC: 1.49238 (Simulation time: 0 hr 2 min 19 sec) 
Heartbeat CPU  0 instructions:   98000003 cycles:   65640284 heartbeat IPC: 1.55372 cumulative IPC: 1.49299 (Simulation time: 0 hr 2 min 20 sec) 
Heartbeat CPU  0 instructions:   99000002 cycles:   66292520 heartbeat IPC: 1.53319 cumulative IPC: 1.49338 (Simulation time: 0 hr 2 min 22 sec) 
Heartbeat CPU  0 instructions:  100000000 cycles:   66877438 heartbeat IPC: 1.70964 cumulative IPC: 1.49527 (Simulation time: 0 hr 2 min 24 sec) 

Warmup complete CPU  0 instructions:  100000002 cycles:   66877440 (Simulation time: 0 hr 2 min 24 sec) 

Heartbeat CPU  0 instructions:  101000001 cycles:   73851414 heartbeat IPC: 0.14339 cumulative IPC: 0.14339 (Simulation time: 0 hr 2 min 28 sec) 
Heartbeat CPU  0 instructions:  102000001 cycles:   77438234 heartbeat IPC: 0.27880 cumulative IPC: 0.18938 (Simulation time: 0 hr 2 min 32 sec) 
Heartbeat CPU  0 instructions:  103000001 cycles:   81830194 heartbeat IPC: 0.22769 cumulative IPC: 0.20063 (Simulation time: 0 hr 2 min 36 sec) 
Heartbeat CPU  0 instructions:  104000000 cycles:   86538062 heartbeat IPC: 0.21241 cumulative IPC: 0.20345 (Simulation time: 0 hr 2 min 40 sec) 
Heartbeat CPU  0 instructions:  105000003 cycles:   89769632 heartbeat IPC: 0.30945 cumulative IPC: 0.21842 (Simulation time: 0 hr 2 min 43 sec) 
Heartbeat CPU  0 instructions:  106000001 cycles:   92611785 heartbeat IPC: 0.35185 cumulative IPC: 0.23315 (Simulation time: 0 hr 2 min 46 sec) 
Heartbeat CPU  0 instructions:  107000003 cycles:   96811372 heartbeat IPC: 0.23812 cumulative IPC: 0.23385 (Simulation time: 0 hr 2 min 49 sec) 
Heartbeat CPU  0 instructions:  108000000 cycles:  100413792 heartbeat IPC: 0.27759 cumulative IPC: 0.23855 (Simulation time: 0 hr 2 min 52 sec) 
Heartbeat CPU  0 instructions:  109000000 cycles:  103978290 heartbeat IPC: 0.28054 cumulative IPC: 0.24258 (Simulation time: 0 hr 2 min 55 sec) 
Heartbeat CPU  0 instructions:  110000001 cycles:  106471661 heartbeat IPC: 0.40106 cumulative IPC: 0.25256 (Simulation time: 0 hr 2 min 57 sec) 
Heartbeat CPU  0 instructions:  111000003 cycles:  109127999 heartbeat IPC: 0.37646 cumulative IPC: 0.26035 (Simulation time: 0 hr 3 min 0 sec) 
Heartbeat CPU  0 instructions:  112000000 cycles:  111096925 heartbeat IPC: 0.50789 cumulative IPC: 0.27137 (Simulation time: 0 hr 3 min 2 sec) 
Heartbeat CPU  0 instructions:  113000002 cycles:  113120092 heartbeat IPC: 0.49428 cumulative IPC: 0.28113 (Simulation time: 0 hr 3 min 5 sec) 
Heartbeat CPU  0 instructions:  114000000 cycles:  114680894 heartbeat IPC: 0.64069 cumulative IPC: 0.29287 (Simulation time: 0 hr 3 min 7 sec) 
Heartbeat CPU  0 instructions:  115000000 cycles:  116534003 heartbeat IPC: 0.53963 cumulative IPC: 0.30207 (Simulation time: 0 hr 3 min 9 sec) 
Heartbeat CPU  0 instructions:  116000000 cycles:  119437719 heartbeat IPC: 0.34439 cumulative IPC: 0.30441 (Simulation time: 0 hr 3 min 12 sec) 
Heartbeat CPU  0 instructions:  117000000 cycles:  122155383 heartbeat IPC: 0.36796 cumulative IPC: 0.30754 (Simulation time: 0 hr 3 min 15 sec) 
Heartbeat CPU  0 instructions:  118000000 cycles:  123939198 heartbeat IPC: 0.56060 cumulative IPC: 0.31545 (Simulation time: 0 hr 3 min 18 sec) 
Heartbeat CPU  0 instructions:  119000000 cycles:  126473403 heartbeat IPC: 0.39460 cumulative IPC: 0.31881 (Simulation time: 0 hr 3 min 20 sec) 
Heartbeat CPU  0 instructions:  120000000 cycles:  128047712 heartbeat IPC: 0.63520 cumulative IPC: 0.32696 (Simulation time: 0 hr 3 min 22 sec) 
Heartbeat CPU  0 instructions:  121000001 cycles:  131513821 heartbeat IPC: 0.28851 cumulative IPC: 0.32489 (Simulation time: 0 hr 3 min 26 sec) 
Heartbeat CPU  0 instructions:  122000001 cycles:  135036004 heartbeat IPC: 0.28391 cumulative IPC: 0.32278 (Simulation time: 0 hr 3 min 29 sec) 
Heartbeat CPU  0 instructions:  123000000 cycles:  136775222 heartbeat IPC: 0.57497 cumulative IPC: 0.32905 (Simulation time: 0 hr 3 min 30 sec) 
Heartbeat CPU  0 instructions:  124000000 cycles:  138204134 heartbeat IPC: 0.69983 cumulative IPC: 0.33648 (Simulation time: 0 hr 3 min 31 sec) 
Heartbeat CPU  0 instructions:  125000000 cycles:  141181717 heartbeat IPC: 0.33584 cumulative IPC: 0.33645 (Simulation time: 0 hr 3 min 34 sec) 
Heartbeat CPU  0 instructions:  126000002 cycles:  143737783 heartbeat IPC: 0.39123 cumulative IPC: 0.33828 (Simulation time: 0 hr 3 min 36 sec) 
Heartbeat CPU  0 instructions:  127000002 cycles:  146538226 heartbeat IPC: 0.35709 cumulative IPC: 0.33894 (Simulation time: 0 hr 3 min 39 sec) 
Heartbeat CPU  0 instructions:  128000000 cycles:  148748507 heartbeat IPC: 0.45243 cumulative IPC: 0.34200 (Simulation time: 0 hr 3 min 41 sec) 
Heartbeat CPU  0 instructions:  129000002 cycles:  150700740 heartbeat IPC: 0.51223 cumulative IPC: 0.34597 (Simulation time: 0 hr 3 min 44 sec) 
Heartbeat CPU  0 instructions:  130000000 cycles:  154845423 heartbeat IPC: 0.24127 cumulative IPC: 0.34103 (Simulation time: 0 hr 3 min 48 sec) 
Heartbeat CPU  0 instructions:  131000000 cycles:  157052614 heartbeat IPC: 0.45306 cumulative IPC: 0.34378 (Simulation time: 0 hr 3 min 49 sec) 
Heartbeat CPU  0 instructions:  132000000 cycles:  158693577 heartbeat IPC: 0.60940 cumulative IPC: 0.34852 (Simulation time: 0 hr 3 min 51 sec) 
Heartbeat CPU  0 instructions:  133000000 cycles:  160741221 heartbeat IPC: 0.48837 cumulative IPC: 0.35157 (Simulation time: 0 hr 3 min 53 sec) 
Heartbeat CPU  0 instructions:  134000000 cycles:  163384870 heartbeat IPC: 0.37827 cumulative IPC: 0.35230 (Simulation time: 0 hr 3 min 55 sec) 
Heartbeat CPU  0 instructions:  135000002 cycles:  166079479 heartbeat IPC: 0.37111 cumulative IPC: 0.35282 (Simulation time: 0 hr 3 min 58 sec) 
Heartbeat CPU  0 instructions:  136000000 cycles:  168345724 heartbeat IPC: 0.44126 cumulative IPC: 0.35479 (Simulation time: 0 hr 4 min 0 sec) 
Heartbeat CPU  0 instructions:  137000000 cycles:  170271084 heartbeat IPC: 0.51938 cumulative IPC: 0.35786 (Simulation time: 0 hr 4 min 2 sec) 
Heartbeat CPU  0 instructions:  138000001 cycles:  172664438 heartbeat IPC: 0.41782 cumulative IPC: 0.35921 (Simulation time: 0 hr 4 min 5 sec) 
Heartbeat CPU  0 instructions:  139000000 cycles:  176829958 heartbeat IPC: 0.24007 cumulative IPC: 0.35470 (Simulation time: 0 hr 4 min 9 sec) 
Heartbeat CPU  0 instructions:  140000000 cycles:  178707661 heartbeat IPC: 0.53257 cumulative IPC: 0.35769 (Simulation time: 0 hr 4 min 10 sec) 
Heartbeat CPU  0 instructions:  141000000 cycles:  180258923 heartbeat IPC: 0.64464 cumulative IPC: 0.36161 (Simulation time: 0 hr 4 min 12 sec) 
Heartbeat CPU  0 instructions:  142000000 cycles:  182660784 heartbeat IPC: 0.41634 cumulative IPC: 0.36275 (Simulation time: 0 hr 4 min 14 sec) 
Heartbeat CPU  0 instructions:  143000000 cycles:  184911941 heartbeat IPC: 0.44422 cumulative IPC: 0.36430 (Simulation time: 0 hr 4 min 16 sec) 
Heartbeat CPU  0 instructions:  144000000 cycles:  187752655 heartbeat IPC: 0.35202 cumulative IPC: 0.36401 (Simulation time: 0 hr 4 min 19 sec) 
Heartbeat CPU  0 instructions:  145000002 cycles:  190210519 heartbeat IPC: 0.40686 cumulative IPC: 0.36487 (Simulation time: 0 hr 4 min 21 sec) 
Heartbeat CPU  0 instructions:  146000003 cycles:  191868113 heartbeat IPC: 0.60328 cumulative IPC: 0.36803 (Simulation time: 0 hr 4 min 23 sec) 
Heartbeat CPU  0 instructions:  147000002 cycles:  195049328 heartbeat IPC: 0.31435 cumulative IPC: 0.36670 (Simulation time: 0 hr 4 min 27 sec) 
Heartbeat CPU  0 instructions:  148000000 cycles:  198659244 heartbeat IPC: 0.27701 cumulative IPC: 0.36424 (Simulation time: 0 hr 4 min 30 sec) 
Heartbeat CPU  0 instructions:  149000000 cycles:  200418349 heartbeat IPC: 0.56847 cumulative IPC: 0.36693 (Simulation time: 0 hr 4 min 31 sec) 
Heartbeat CPU  0 instructions:  150000002 cycles:  201889422 heartbeat IPC: 0.67978 cumulative IPC: 0.37034 (Simulation time: 0 hr 4 min 33 sec) 
Heartbeat CPU  0 instructions:  151000000 cycles:  204650503 heartbeat IPC: 0.36218 cumulative IPC: 0.37017 (Simulation time: 0 hr 4 min 35 sec) 
Heartbeat CPU  0 instructions:  152000000 cycles:  206927021 heartbeat IPC: 0.43927 cumulative IPC: 0.37130 (Simulation time: 0 hr 4 min 37 sec) 
Heartbeat CPU  0 instructions:  153000000 cycles:  209288857 heartbeat IPC: 0.42340 cumulative IPC: 0.37216 (Simulation time: 0 hr 4 min 40 sec) 
Heartbeat CPU  0 instructions:  154000002 cycles:  212061008 heartbeat IPC: 0.36073 cumulative IPC: 0.37194 (Simulation time: 0 hr 4 min 42 sec) 
Heartbeat CPU  0 instructions:  155000002 cycles:  213473150 heartbeat IPC: 0.70814 cumulative IPC: 0.37518 (Simulation time: 0 hr 4 min 44 sec) 
Heartbeat CPU  0 instructions:  156000000 cycles:  217027573 heartbeat IPC: 0.28134 cumulative IPC: 0.37296 (Simulation time: 0 hr 4 min 48 sec) 
Heartbeat CPU  0 instructions:  157000000 cycles:  220387191 heartbeat IPC: 0.29765 cumulative IPC: 0.37131 (Simulation time: 0 hr 4 min 51 sec) 
Heartbeat CPU  0 instructions:  158000003 cycles:  222120026 heartbeat IPC: 0.57709 cumulative IPC: 0.37361 (Simulation time: 0 hr 4 min 52 sec) 
Heartbeat CPU  0 instructions:  159000000 cycles:  223655449 heartbeat IPC: 0.65128 cumulative IPC: 0.37633 (Simulation time: 0 hr 4 min 53 sec) 
Heartbeat CPU  0 instructions:  160000000 cycles:  226757977 heartbeat IPC: 0.32232 cumulative IPC: 0.37528 (Simulation time: 0 hr 4 min 56 sec) 
Heartbeat CPU  0 instructions:  161000003 cycles:  229114471 heartbeat IPC: 0.42436 cumulative IPC: 0.37599 (Simulation time: 0 hr 4 min 59 sec) 
Heartbeat CPU  0 instructions:  162000001 cycles:  231560304 heartbeat IPC: 0.40886 cumulative IPC: 0.37648 (Simulation time: 0 hr 5 min 1 sec) 
Heartbeat CPU  0 instructions:  163000000 cycles:  233835239 heartbeat IPC: 0.43957 cumulative IPC: 0.37734 (Simulation time: 0 hr 5 min 3 sec) 
Heartbeat CPU  0 instructions:  164000000 cycles:  235743434 heartbeat IPC: 0.52406 cumulative IPC: 0.37900 (Simulation time: 0 hr 5 min 6 sec) 
Heartbeat CPU  0 instructions:  165000001 cycles:  239824228 heartbeat IPC: 0.24505 cumulative IPC: 0.37584 (Simulation time: 0 hr 5 min 10 sec) 
Heartbeat CPU  0 instructions:  166000000 cycles:  242102637 heartbeat IPC: 0.43890 cumulative IPC: 0.37666 (Simulation time: 0 hr 5 min 11 sec) 
Heartbeat CPU  0 instructions:  167000001 cycles:  243744730 heartbeat IPC: 0.60898 cumulative IPC: 0.37882 (Simulation time: 0 hr 5 min 13 sec) 
Heartbeat CPU  0 instructions:  168000000 cycles:  245787372 heartbeat IPC: 0.48956 cumulative IPC: 0.38008 (Simulation time: 0 hr 5 min 15 sec) 
Heartbeat CPU  0 instructions:  169000001 cycles:  248423334 heartbeat IPC: 0.37937 cumulative IPC: 0.38007 (Simulation time: 0 hr 5 min 17 sec) 
Heartbeat CPU  0 instructions:  170000002 cycles:  251131311 heartbeat IPC: 0.36928 cumulative IPC: 0.37991 (Simulation time: 0 hr 5 min 20 sec) 
Heartbeat CPU  0 instructions:  171000000 cycles:  253487154 heartbeat IPC: 0.42448 cumulative IPC: 0.38047 (Simulation time: 0 hr 5 min 22 sec) 
Heartbeat CPU  0 instructions:  172000000 cycles:  255424467 heartbeat IPC: 0.51618 cumulative IPC: 0.38187 (Simulation time: 0 hr 5 min 25 sec) 
Heartbeat CPU  0 instructions:  173000000 cycles:  257768221 heartbeat IPC: 0.42667 cumulative IPC: 0.38242 (Simulation time: 0 hr 5 min 27 sec) 
Heartbeat CPU  0 instructions:  174000000 cycles:  261925306 heartbeat IPC: 0.24055 cumulative IPC: 0.37939 (Simulation time: 0 hr 5 min 31 sec) 
Heartbeat CPU  0 instructions:  175000000 cycles:  263815723 heartbeat IPC: 0.52898 cumulative IPC: 0.38083 (Simulation time: 0 hr 5 min 32 sec) 
Heartbeat CPU  0 instructions:  176000000 cycles:  265374488 heartbeat IPC: 0.64153 cumulative IPC: 0.38288 (Simulation time: 0 hr 5 min 34 sec) 
Heartbeat CPU  0 instructions:  177000001 cycles:  267748195 heartbeat IPC: 0.42128 cumulative IPC: 0.38333 (Simulation time: 0 hr 5 min 36 sec) 
Heartbeat CPU  0 instructions:  178000001 cycles:  270047229 heartbeat IPC: 0.43497 cumulative IPC: 0.38392 (Simulation time: 0 hr 5 min 38 sec) 
Heartbeat CPU  0 instructions:  179000003 cycles:  272891189 heartbeat IPC: 0.35162 cumulative IPC: 0.38347 (Simulation time: 0 hr 5 min 41 sec) 
Heartbeat CPU  0 instructions:  180000000 cycles:  275461143 heartbeat IPC: 0.38911 cumulative IPC: 0.38354 (Simulation time: 0 hr 5 min 43 sec) 
Heartbeat CPU  0 instructions:  181000003 cycles:  277012926 heartbeat IPC: 0.64442 cumulative IPC: 0.38547 (Simulation time: 0 hr 5 min 46 sec) 
Heartbeat CPU  0 instructions:  182000000 cycles:  280477367 heartbeat IPC: 0.28865 cumulative IPC: 0.38390 (Simulation time: 0 hr 5 min 49 sec) 
Heartbeat CPU  0 instructions:  183000000 cycles:  283908452 heartbeat IPC: 0.29145 cumulative IPC: 0.38243 (Simulation time: 0 hr 5 min 52 sec) 
Heartbeat CPU  0 instructions:  184000000 cycles:  285640642 heartbeat IPC: 0.57730 cumulative IPC: 0.38398 (Simulation time: 0 hr 5 min 53 sec) 
Heartbeat CPU  0 instructions:  185000002 cycles:  287096844 heartbeat IPC: 0.68672 cumulative IPC: 0.38598 (Simulation time: 0 hr 5 min 55 sec) 
Heartbeat CPU  0 instructions:  186000000 cycles:  290187761 heartbeat IPC: 0.32353 cumulative IPC: 0.38511 (Simulation time: 0 hr 5 min 57 sec) 
Heartbeat CPU  0 instructions:  187000003 cycles:  292592384 heartbeat IPC: 0.41587 cumulative IPC: 0.38544 (Simulation time: 0 hr 6 min 0 sec) 
Heartbeat CPU  0 instructions:  188000000 cycles:  294756371 heartbeat IPC: 0.46211 cumulative IPC: 0.38617 (Simulation time: 0 hr 6 min 2 sec) 
Heartbeat CPU  0 instructions:  189000001 cycles:  297337340 heartbeat IPC: 0.38745 cumulative IPC: 0.38618 (Simulation time: 0 hr 6 min 5 sec) 
Heartbeat CPU  0 instructions:  190000001 cycles:  298939683 heartbeat IPC: 0.62409 cumulative IPC: 0.38783 (Simulation time: 0 hr 6 min 7 sec) 
Heartbeat CPU  0 instructions:  191000002 cycles:  302807456 heartbeat IPC: 0.25855 cumulative IPC: 0.38571 (Simulation time: 0 hr 6 min 11 sec) 
Heartbeat CPU  0 instructions:  192000000 cycles:  305569283 heartbeat IPC: 0.36208 cumulative IPC: 0.38543 (Simulation time: 0 hr 6 min 13 sec) 
Heartbeat CPU  0 instructions:  193000003 cycles:  307259730 heartbeat IPC: 0.59156 cumulative IPC: 0.38688 (Simulation time: 0 hr 6 min 14 sec) 
Heartbeat CPU  0 instructions:  194000001 cycles:  309076729 heartbeat IPC: 0.55036 cumulative IPC: 0.38811 (Simulation time: 0 hr 6 min 16 sec) 
Heartbeat CPU  0 instructions:  195000000 cycles:  311897135 heartbeat IPC: 0.35456 cumulative IPC: 0.38772 (Simulation time: 0 hr 6 min 18 sec) 
Heartbeat CPU  0 instructions:  196000000 cycles:  314443809 heartbeat IPC: 0.39267 cumulative IPC: 0.38777 (Simulation time: 0 hr 6 min 21 sec) 
Heartbeat CPU  0 instructions:  197000000 cycles:  316784031 heartbeat IPC: 0.42731 cumulative IPC: 0.38815 (Simulation time: 0 hr 6 min 24 sec) 
Heartbeat CPU  0 instructions:  198000000 cycles:  318932912 heartbeat IPC: 0.46536 cumulative IPC: 0.38880 (Simulation time: 0 hr 6 min 26 sec) 
Heartbeat CPU  0 instructions:  199000002 cycles:  320962826 heartbeat IPC: 0.49263 cumulative IPC: 0.38963 (Simulation time: 0 hr 6 min 28 sec) 
Heartbeat CPU  0 instructions:  200000000 cycles:  325240898 heartbeat IPC: 0.23375 cumulative IPC: 0.38705 (Simulation time: 0 hr 6 min 32 sec) 
Heartbeat CPU  0 instructions:  201000000 cycles:  327267153 heartbeat IPC: 0.49352 cumulative IPC: 0.38788 (Simulation time: 0 hr 6 min 34 sec) 
Heartbeat CPU  0 instructions:  202000002 cycles:  328887177 heartbeat IPC: 0.61728 cumulative IPC: 0.38930 (Simulation time: 0 hr 6 min 35 sec) 
Heartbeat CPU  0 instructions:  203000002 cycles:  331003696 heartbeat IPC: 0.47247 cumulative IPC: 0.38997 (Simulation time: 0 hr 6 min 37 sec) 
Heartbeat CPU  0 instructions:  204000000 cycles:  333579204 heartbeat IPC: 0.38827 cumulative IPC: 0.38995 (Simulation time: 0 hr 6 min 39 sec) 
Heartbeat CPU  0 instructions:  205000000 cycles:  336307732 heartbeat IPC: 0.36650 cumulative IPC: 0.38971 (Simulation time: 0 hr 6 min 42 sec) 
Heartbeat CPU  0 instructions:  206000000 cycles:  337071176 heartbeat IPC: 1.30985 cumulative IPC: 0.39231 (Simulation time: 0 hr 6 min 44 sec) 
Heartbeat CPU  0 instructions:  207000002 cycles:  345780255 heartbeat IPC: 0.11482 cumulative IPC: 0.38365 (Simulation time: 0 hr 6 min 49 sec) 
Heartbeat CPU  0 instructions:  208000000 cycles:  347880288 heartbeat IPC: 0.47618 cumulative IPC: 0.38434 (Simulation time: 0 hr 6 min 52 sec) 
Heartbeat CPU  0 instructions:  209000001 cycles:  353039234 heartbeat IPC: 0.19384 cumulative IPC: 0.38090 (Simulation time: 0 hr 6 min 56 sec) 
Heartbeat CPU  0 instructions:  210000000 cycles:  357442122 heartbeat IPC: 0.22712 cumulative IPC: 0.37857 (Simulation time: 0 hr 7 min 0 sec) 
Heartbeat CPU  0 instructions:  211000001 cycles:  360731472 heartbeat IPC: 0.30401 cumulative IPC: 0.37774 (Simulation time: 0 hr 7 min 4 sec) 
Heartbeat CPU  0 instructions:  212000000 cycles:  363373227 heartbeat IPC: 0.37854 cumulative IPC: 0.37775 (Simulation time: 0 hr 7 min 7 sec) 
Heartbeat CPU  0 instructions:  213000002 cycles:  367632577 heartbeat IPC: 0.23478 cumulative IPC: 0.37572 (Simulation time: 0 hr 7 min 10 sec) 
Heartbeat CPU  0 instructions:  214000001 cycles:  371358119 heartbeat IPC: 0.26842 cumulative IPC: 0.37441 (Simulation time: 0 hr 7 min 12 sec) 
Heartbeat CPU  0 instructions:  215000002 cycles:  374794002 heartbeat IPC: 0.29105 cumulative IPC: 0.37348 (Simulation time: 0 hr 7 min 15 sec) 
Heartbeat CPU  0 instructions:  216000000 cycles:  377079805 heartbeat IPC: 0.43748 cumulative IPC: 0.37395 (Simulation time: 0 hr 7 min 18 sec) 
Heartbeat CPU  0 instructions:  217000000 cycles:  379755747 heartbeat IPC: 0.37370 cumulative IPC: 0.37395 (Simulation time: 0 hr 7 min 20 sec) 
Heartbeat CPU  0 instructions:  218000002 cycles:  381729639 heartbeat IPC: 0.50661 cumulative IPC: 0.37478 (Simulation time: 0 hr 7 min 23 sec) 
Heartbeat CPU  0 instructions:  219000002 cycles:  383571171 heartbeat IPC: 0.54303 cumulative IPC: 0.37576 (Simulation time: 0 hr 7 min 25 sec) 
Heartbeat CPU  0 instructions:  220000000 cycles:  385134775 heartbeat IPC: 0.63955 cumulative IPC: 0.37705 (Simulation time: 0 hr 7 min 27 sec) 
Heartbeat CPU  0 instructions:  221000003 cycles:  387365125 heartbeat IPC: 0.44836 cumulative IPC: 0.37755 (Simulation time: 0 hr 7 min 30 sec) 
Heartbeat CPU  0 instructions:  222000003 cycles:  390043684 heartbeat IPC: 0.37334 cumulative IPC: 0.37751 (Simulation time: 0 hr 7 min 33 sec) 
Heartbeat CPU  0 instructions:  223000002 cycles:  392724146 heartbeat IPC: 0.37307 cumulative IPC: 0.37748 (Simulation time: 0 hr 7 min 36 sec) 
Heartbeat CPU  0 instructions:  224000000 cycles:  394498855 heartbeat IPC: 0.56347 cumulative IPC: 0.37849 (Simulation time: 0 hr 7 min 38 sec) 
Heartbeat CPU  0 instructions:  225000000 cycles:  397059336 heartbeat IPC: 0.39055 cumulative IPC: 0.37858 (Simulation time: 0 hr 7 min 40 sec) 
Heartbeat CPU  0 instructions:  226000000 cycles:  398438341 heartbeat IPC: 0.72516 cumulative IPC: 0.38002 (Simulation time: 0 hr 7 min 42 sec) 
Heartbeat CPU  0 instructions:  227000000 cycles:  402475208 heartbeat IPC: 0.24772 cumulative IPC: 0.37843 (Simulation time: 0 hr 7 min 46 sec) 
Heartbeat CPU  0 instructions:  228000000 cycles:  405472653 heartbeat IPC: 0.33362 cumulative IPC: 0.37803 (Simulation time: 0 hr 7 min 49 sec) 
Heartbeat CPU  0 instructions:  229000001 cycles:  407183092 heartbeat IPC: 0.58465 cumulative IPC: 0.37907 (Simulation time: 0 hr 7 min 50 sec) 
Heartbeat CPU  0 instructions:  230000000 cycles:  408844701 heartbeat IPC: 0.60183 cumulative IPC: 0.38015 (Simulation time: 0 hr 7 min 52 sec) 
Heartbeat CPU  0 instructions:  231000002 cycles:  411850635 heartbeat IPC: 0.33268 cumulative IPC: 0.37974 (Simulation time: 0 hr 7 min 54 sec) 
Heartbeat CPU  0 instructions:  232000000 cycles:  414464425 heartbeat IPC: 0.38259 cumulative IPC: 0.37976 (Simulation time: 0 hr 7 min 57 sec) 
Heartbeat CPU  0 instructions:  233000000 cycles:  417183683 heartbeat IPC: 0.36775 cumulative IPC: 0.37967 (Simulation time: 0 hr 8 min 0 sec) 
Heartbeat CPU  0 instructions:  234000002 cycles:  419118017 heartbeat IPC: 0.51697 cumulative IPC: 0.38042 (Simulation time: 0 hr 8 min 2 sec) 
Heartbeat CPU  0 instructions:  235000000 cycles:  421503844 heartbeat IPC: 0.41914 cumulative IPC: 0.38068 (Simulation time: 0 hr 8 min 4 sec) 
Heartbeat CPU  0 instructions:  236000000 cycles:  425642306 heartbeat IPC: 0.24164 cumulative IPC: 0.37908 (Simulation time: 0 hr 8 min 8 sec) 
Heartbeat CPU  0 instructions:  237000002 cycles:  427504009 heartbeat IPC: 0.53714 cumulative IPC: 0.37989 (Simulation time: 0 hr 8 min 10 sec) 
Heartbeat CPU  0 instructions:  238000002 cycles:  429050868 heartbeat IPC: 0.64647 cumulative IPC: 0.38103 (Simulation time: 0 hr 8 min 11 sec) 
Heartbeat CPU  0 instructions:  239000001 cycles:  431458710 heartbeat IPC: 0.41531 cumulative IPC: 0.38126 (Simulation time: 0 hr 8 min 13 sec) 
Heartbeat CPU  0 instructions:  240000000 cycles:  433707661 heartbeat IPC: 0.44465 cumulative IPC: 0.38165 (Simulation time: 0 hr 8 min 15 sec) 
Heartbeat CPU  0 instructions:  241000001 cycles:  436535518 heartbeat IPC: 0.35363 cumulative IPC: 0.38143 (Simulation time: 0 hr 8 min 18 sec) 
Heartbeat CPU  0 instructions:  242000002 cycles:  438970322 heartbeat IPC: 0.41071 cumulative IPC: 0.38163 (Simulation time: 0 hr 8 min 21 sec) 
Heartbeat CPU  0 instructions:  243000002 cycles:  440594033 heartbeat IPC: 0.61587 cumulative IPC: 0.38264 (Simulation time: 0 hr 8 min 23 sec) 
Heartbeat CPU  0 instructions:  244000000 cycles:  443786237 heartbeat IPC: 0.31326 cumulative IPC: 0.38206 (Simulation time: 0 hr 8 min 26 sec) 
Heartbeat CPU  0 instructions:  245000001 cycles:  447389773 heartbeat IPC: 0.27751 cumulative IPC: 0.38107 (Simulation time: 0 hr 8 min 29 sec) 
Heartbeat CPU  0 instructions:  246000001 cycles:  449147009 heartbeat IPC: 0.56908 cumulative IPC: 0.38193 (Simulation time: 0 hr 8 min 30 sec) 
Heartbeat CPU  0 instructions:  247000001 cycles:  450618962 heartbeat IPC: 0.67937 cumulative IPC: 0.38307 (Simulation time: 0 hr 8 min 32 sec) 
Heartbeat CPU  0 instructions:  248000000 cycles:  453395125 heartbeat IPC: 0.36021 cumulative IPC: 0.38291 (Simulation time: 0 hr 8 min 34 sec) 
Heartbeat CPU  0 instructions:  249000000 cycles:  455686477 heartbeat IPC: 0.43642 cumulative IPC: 0.38322 (Simulation time: 0 hr 8 min 36 sec) 
Heartbeat CPU  0 instructions:  250000000 cycles:  458011058 heartbeat IPC: 0.43019 cumulative IPC: 0.38350 (Simulation time: 0 hr 8 min 39 sec) 
Heartbeat CPU  0 instructions:  251000001 cycles:  460726496 heartbeat IPC: 0.36827 cumulative IPC: 0.38340 (Simulation time: 0 hr 8 min 42 sec) 
Heartbeat CPU  0 instructions:  252000000 cycles:  462108725 heartbeat IPC: 0.72347 cumulative IPC: 0.38458 (Simulation time: 0 hr 8 min 44 sec) 
Heartbeat CPU  0 instructions:  253000000 cycles:  465690872 heartbeat IPC: 0.27916 cumulative IPC: 0.38364 (Simulation time: 0 hr 8 min 47 sec) 
Heartbeat CPU  0 instructions:  254000000 cycles:  469042462 heartbeat IPC: 0.29837 cumulative IPC: 0.38293 (Simulation time: 0 hr 8 min 50 sec) 
Heartbeat CPU  0 instructions:  255000002 cycles:  470769626 heartbeat IPC: 0.57898 cumulative IPC: 0.38377 (Simulation time: 0 hr 8 min 51 sec) 
Heartbeat CPU  0 instructions:  256000000 cycles:  472313297 heartbeat IPC: 0.64781 cumulative IPC: 0.38477 (Simulation time: 0 hr 8 min 53 sec) 
Heartbeat CPU  0 instructions:  257000000 cycles:  475428123 heartbeat IPC: 0.32105 cumulative IPC: 0.38429 (Simulation time: 0 hr 8 min 55 sec) 
Heartbeat CPU  0 instructions:  258000001 cycles:  477767722 heartbeat IPC: 0.42742 cumulative IPC: 0.38453 (Simulation time: 0 hr 8 min 58 sec) 
Heartbeat CPU  0 instructions:  259000003 cycles:  479922946 heartbeat IPC: 0.46399 cumulative IPC: 0.38495 (Simulation time: 0 hr 9 min 0 sec) 
Heartbeat CPU  0 instructions:  260000000 cycles:  482430283 heartbeat IPC: 0.39883 cumulative IPC: 0.38503 (Simulation time: 0 hr 9 min 3 sec) 
Heartbeat CPU  0 instructions:  261000000 cycles:  484133864 heartbeat IPC: 0.58700 cumulative IPC: 0.38585 (Simulation time: 0 hr 9 min 5 sec) 
Heartbeat CPU  0 instructions:  262000000 cycles:  488031691 heartbeat IPC: 0.25655 cumulative IPC: 0.38466 (Simulation time: 0 hr 9 min 9 sec) 
Heartbeat CPU  0 instructions:  263000002 cycles:  490653687 heartbeat IPC: 0.38139 cumulative IPC: 0.38464 (Simulation time: 0 hr 9 min 11 sec) 
Heartbeat CPU  0 instructions:  264000000 cycles:  492326435 heartbeat IPC: 0.59782 cumulative IPC: 0.38548 (Simulation time: 0 hr 9 min 12 sec) 
Heartbeat CPU  0 instructions:  265000003 cycles:  494247581 heartbeat IPC: 0.52052 cumulative IPC: 0.38608 (Simulation time: 0 hr 9 min 14 sec) 
Heartbeat CPU  0 instructions:  266000002 cycles:  496992735 heartbeat IPC: 0.36428 cumulative IPC: 0.38594 (Simulation time: 0 hr 9 min 16 sec) 
Heartbeat CPU  0 instructions:  267000000 cycles:  499587133 heartbeat IPC: 0.38545 cumulative IPC: 0.38594 (Simulation time: 0 hr 9 min 19 sec) 
Heartbeat CPU  0 instructions:  268000000 cycles:  501915090 heartbeat IPC: 0.42956 cumulative IPC: 0.38617 (Simulation time: 0 hr 9 min 22 sec) 
Heartbeat CPU  0 instructions:  269000002 cycles:  503993095 heartbeat IPC: 0.48123 cumulative IPC: 0.38663 (Simulation time: 0 hr 9 min 24 sec) 
Heartbeat CPU  0 instructions:  270000002 cycles:  506151477 heartbeat IPC: 0.46331 cumulative IPC: 0.38700 (Simulation time: 0 hr 9 min 26 sec) 
Heartbeat CPU  0 instructions:  271000003 cycles:  510372807 heartbeat IPC: 0.23689 cumulative IPC: 0.38557 (Simulation time: 0 hr 9 min 30 sec) 
Heartbeat CPU  0 instructions:  272000000 cycles:  512350051 heartbeat IPC: 0.50575 cumulative IPC: 0.38611 (Simulation time: 0 hr 9 min 32 sec) 
Heartbeat CPU  0 instructions:  273000003 cycles:  513934720 heartbeat IPC: 0.63105 cumulative IPC: 0.38698 (Simulation time: 0 hr 9 min 33 sec) 
Heartbeat CPU  0 instructions:  274000002 cycles:  516153348 heartbeat IPC: 0.45073 cumulative IPC: 0.38729 (Simulation time: 0 hr 9 min 35 sec) 
Heartbeat CPU  0 instructions:  275000000 cycles:  518616153 heartbeat IPC: 0.40604 cumulative IPC: 0.38739 (Simulation time: 0 hr 9 min 37 sec) 
Heartbeat CPU  0 instructions:  276000000 cycles:  521359880 heartbeat IPC: 0.36447 cumulative IPC: 0.38725 (Simulation time: 0 hr 9 min 40 sec) 
Heartbeat CPU  0 instructions:  277000001 cycles:  523798349 heartbeat IPC: 0.41009 cumulative IPC: 0.38738 (Simulation time: 0 hr 9 min 43 sec) 
Heartbeat CPU  0 instructions:  278000000 cycles:  525542348 heartbeat IPC: 0.57339 cumulative IPC: 0.38808 (Simulation time: 0 hr 9 min 45 sec) 
Heartbeat CPU  0 instructions:  279000000 cycles:  528457619 heartbeat IPC: 0.34302 cumulative IPC: 0.38780 (Simulation time: 0 hr 9 min 48 sec) 
Heartbeat CPU  0 instructions:  280000000 cycles:  532262004 heartbeat IPC: 0.26285 cumulative IPC: 0.38678 (Simulation time: 0 hr 9 min 51 sec) 
Heartbeat CPU  0 instructions:  281000000 cycles:  534050666 heartbeat IPC: 0.55908 cumulative IPC: 0.38744 (Simulation time: 0 hr 9 min 53 sec) 
Heartbeat CPU  0 instructions:  282000000 cycles:  535563254 heartbeat IPC: 0.66112 cumulative IPC: 0.38832 (Simulation time: 0 hr 9 min 54 sec) 
Heartbeat CPU  0 instructions:  283000003 cycles:  538148570 heartbeat IPC: 0.38680 cumulative IPC: 0.38831 (Simulation time: 0 hr 9 min 56 sec) 
Heartbeat CPU  0 instructions:  284000000 cycles:  540162726 heartbeat IPC: 0.49648 cumulative IPC: 0.38877 (Simulation time: 0 hr 9 min 58 sec) 
Heartbeat CPU  0 instructions:  285000001 cycles:  542991307 heartbeat IPC: 0.35353 cumulative IPC: 0.38856 (Simulation time: 0 hr 10 min 1 sec) 
Heartbeat CPU  0 instructions:  286000000 cycles:  545500380 heartbeat IPC: 0.39855 cumulative IPC: 0.38861 (Simulation time: 0 hr 10 min 4 sec) 
Heartbeat CPU  0 instructions:  287000003 cycles:  547126612 heartbeat IPC: 0.61492 cumulative IPC: 0.38938 (Simulation time: 0 hr 10 min 6 sec) 
Heartbeat CPU  0 instructions:  288000000 cycles:  550459323 heartbeat IPC: 0.30006 cumulative IPC: 0.38877 (Simulation time: 0 hr 10 min 9 sec) 
Heartbeat CPU  0 instructions:  289000000 cycles:  553963096 heartbeat IPC: 0.28541 cumulative IPC: 0.38802 (Simulation time: 0 hr 10 min 12 sec) 
Heartbeat CPU  0 instructions:  290000000 cycles:  555703806 heartbeat IPC: 0.57448 cumulative IPC: 0.38869 (Simulation time: 0 hr 10 min 13 sec) 
Heartbeat CPU  0 instructions:  291000000 cycles:  557132123 heartbeat IPC: 0.70012 cumulative IPC: 0.38959 (Simulation time: 0 hr 10 min 15 sec) 
Heartbeat CPU  0 instructions:  292000000 cycles:  560109161 heartbeat IPC: 0.33590 cumulative IPC: 0.38927 (Simulation time: 0 hr 10 min 17 sec) 
Heartbeat CPU  0 instructions:  293000002 cycles:  562519329 heartbeat IPC: 0.41491 cumulative IPC: 0.38939 (Simulation time: 0 hr 10 min 20 sec) 
Heartbeat CPU  0 instructions:  294000001 cycles:  564740370 heartbeat IPC: 0.45024 cumulative IPC: 0.38967 (Simulation time: 0 hr 10 min 22 sec) 
Heartbeat CPU  0 instructions:  295000003 cycles:  567371772 heartbeat IPC: 0.38003 cumulative IPC: 0.38961 (Simulation time: 0 hr 10 min 25 sec) 
Heartbeat CPU  0 instructions:  296000000 cycles:  568784659 heartbeat IPC: 0.70777 cumulative IPC: 0.39051 (Simulation time: 0 hr 10 min 27 sec) 
Heartbeat CPU  0 instructions:  297000001 cycles:  572640058 heartbeat IPC: 0.25938 cumulative IPC: 0.38951 (Simulation time: 0 hr 10 min 31 sec) 
Heartbeat CPU  0 instructions:  298000000 cycles:  575613786 heartbeat IPC: 0.33628 cumulative IPC: 0.38920 (Simulation time: 0 hr 10 min 33 sec) 
Heartbeat CPU  0 instructions:  299000000 cycles:  577322392 heartbeat IPC: 0.58527 cumulative IPC: 0.38986 (Simulation time: 0 hr 10 min 34 sec) 
Heartbeat CPU  0 instructions:  300000000 cycles:  579064383 heartbeat IPC: 0.57406 cumulative IPC: 0.39048 (Simulation time: 0 hr 10 min 36 sec) 
Heartbeat CPU  0 instructions:  301000001 cycles:  581274614 heartbeat IPC: 0.45244 cumulative IPC: 0.39075 (Simulation time: 0 hr 10 min 38 sec) 
Heartbeat CPU  0 instructions:  302000001 cycles:  583867445 heartbeat IPC: 0.38568 cumulative IPC: 0.39072 (Simulation time: 0 hr 10 min 40 sec) 
Heartbeat CPU  0 instructions:  303000002 cycles:  586326546 heartbeat IPC: 0.40665 cumulative IPC: 0.39080 (Simulation time: 0 hr 10 min 43 sec) 
Heartbeat CPU  0 instructions:  304000000 cycles:  588531417 heartbeat IPC: 0.45354 cumulative IPC: 0.39106 (Simulation time: 0 hr 10 min 46 sec) 
Heartbeat CPU  0 instructions:  305000003 cycles:  591231454 heartbeat IPC: 0.37037 cumulative IPC: 0.39096 (Simulation time: 0 hr 10 min 48 sec) 
Heartbeat CPU  0 instructions:  306000003 cycles:  592745762 heartbeat IPC: 0.66037 cumulative IPC: 0.39173 (Simulation time: 0 hr 10 min 50 sec) 
Heartbeat CPU  0 instructions:  307000003 cycles:  596586627 heartbeat IPC: 0.26036 cumulative IPC: 0.39078 (Simulation time: 0 hr 10 min 54 sec) 
Heartbeat CPU  0 instructions:  308000000 cycles:  599510995 heartbeat IPC: 0.34195 cumulative IPC: 0.39051 (Simulation time: 0 hr 10 min 56 sec) 
Heartbeat CPU  0 instructions:  309000001 cycles:  601225374 heartbeat IPC: 0.58330 cumulative IPC: 0.39113 (Simulation time: 0 hr 10 min 58 sec) 
Heartbeat CPU  0 instructions:  310000000 cycles:  602986539 heartbeat IPC: 0.56781 cumulative IPC: 0.39171 (Simulation time: 0 hr 10 min 59 sec) 
Heartbeat CPU  0 instructions:  311000001 cycles:  605123434 heartbeat IPC: 0.46797 cumulative IPC: 0.39201 (Simulation time: 0 hr 11 min 2 sec) 
Heartbeat CPU  0 instructions:  312000000 cycles:  607795343 heartbeat IPC: 0.37426 cumulative IPC: 0.39193 (Simulation time: 0 hr 11 min 4 sec) 
Heartbeat CPU  0 instructions:  313000000 cycles:  610244320 heartbeat IPC: 0.40833 cumulative IPC: 0.39200 (Simulation time: 0 hr 11 min 7 sec) 
Heartbeat CPU  0 instructions:  314000003 cycles:  611890993 heartbeat IPC: 0.60729 cumulative IPC: 0.39265 (Simulation time: 0 hr 11 min 9 sec) 
Heartbeat CPU  0 instructions:  315000000 cycles:  617094388 heartbeat IPC: 0.19218 cumulative IPC: 0.39075 (Simulation time: 0 hr 11 min 13 sec) 
Heartbeat CPU  0 instructions:  316000000 cycles:  622351415 heartbeat IPC: 0.19022 cumulative IPC: 0.38886 (Simulation time: 0 hr 11 min 17 sec) 
Heartbeat CPU  0 instructions:  317000002 cycles:  626131124 heartbeat IPC: 0.26457 cumulative IPC: 0.38802 (Simulation time: 0 hr 11 min 20 sec) 
Heartbeat CPU  0 instructions:  318000000 cycles:  630719321 heartbeat IPC: 0.21795 cumulative IPC: 0.38663 (Simulation time: 0 hr 11 min 24 sec) 
Heartbeat CPU  0 instructions:  319000001 cycles:  634282924 heartbeat IPC: 0.28062 cumulative IPC: 0.38597 (Simulation time: 0 hr 11 min 28 sec) 
Heartbeat CPU  0 instructions:  320000000 cycles:  637145808 heartbeat IPC: 0.34930 cumulative IPC: 0.38578 (Simulation time: 0 hr 11 min 31 sec) 
Heartbeat CPU  0 instructions:  321000003 cycles:  641157539 heartbeat IPC: 0.24927 cumulative IPC: 0.38483 (Simulation time: 0 hr 11 min 34 sec) 
Heartbeat CPU  0 instructions:  322000001 cycles:  644706095 heartbeat IPC: 0.28180 cumulative IPC: 0.38420 (Simulation time: 0 hr 11 min 37 sec) 
Heartbeat CPU  0 instructions:  323000002 cycles:  648377688 heartbeat IPC: 0.27236 cumulative IPC: 0.38349 (Simulation time: 0 hr 11 min 40 sec) 
Heartbeat CPU  0 instructions:  324000000 cycles:  651173037 heartbeat IPC: 0.35774 cumulative IPC: 0.38337 (Simulation time: 0 hr 11 min 42 sec) 
Heartbeat CPU  0 instructions:  325000000 cycles:  653708158 heartbeat IPC: 0.39446 cumulative IPC: 0.38342 (Simulation time: 0 hr 11 min 45 sec) 
Heartbeat CPU  0 instructions:  326000002 cycles:  655736699 heartbeat IPC: 0.49297 cumulative IPC: 0.38379 (Simulation time: 0 hr 11 min 47 sec) 
Heartbeat CPU  0 instructions:  327000001 cycles:  658008907 heartbeat IPC: 0.44010 cumulative IPC: 0.38401 (Simulation time: 0 hr 11 min 50 sec) 
Heartbeat CPU  0 instructions:  328000000 cycles:  659355428 heartbeat IPC: 0.74265 cumulative IPC: 0.38482 (Simulation time: 0 hr 11 min 52 sec) 
Heartbeat CPU  0 instructions:  329000001 cycles:  661036228 heartbeat IPC: 0.59496 cumulative IPC: 0.38542 (Simulation time: 0 hr 11 min 54 sec) 
Heartbeat CPU  0 instructions:  330000000 cycles:  664108677 heartbeat IPC: 0.32547 cumulative IPC: 0.38511 (Simulation time: 0 hr 11 min 57 sec) 
Heartbeat CPU  0 instructions:  331000002 cycles:  666582282 heartbeat IPC: 0.40427 cumulative IPC: 0.38519 (Simulation time: 0 hr 12 min 0 sec) 
Heartbeat CPU  0 instructions:  332000000 cycles:  668810284 heartbeat IPC: 0.44883 cumulative IPC: 0.38543 (Simulation time: 0 hr 12 min 3 sec) 
Heartbeat CPU  0 instructions:  333000003 cycles:  671181034 heartbeat IPC: 0.42181 cumulative IPC: 0.38557 (Simulation time: 0 hr 12 min 5 sec) 
Heartbeat CPU  0 instructions:  334000000 cycles:  672872458 heartbeat IPC: 0.59122 cumulative IPC: 0.38614 (Simulation time: 0 hr 12 min 7 sec) 
Heartbeat CPU  0 instructions:  335000001 cycles:  675912969 heartbeat IPC: 0.32889 cumulative IPC: 0.38586 (Simulation time: 0 hr 12 min 11 sec) 
Heartbeat CPU  0 instructions:  336000000 cycles:  679682887 heartbeat IPC: 0.26526 cumulative IPC: 0.38511 (Simulation time: 0 hr 12 min 14 sec) 
Heartbeat CPU  0 instructions:  337000000 cycles:  681476426 heartbeat IPC: 0.55756 cumulative IPC: 0.38562 (Simulation time: 0 hr 12 min 15 sec) 
Heartbeat CPU  0 instructions:  338000000 cycles:  682986784 heartbeat IPC: 0.66209 cumulative IPC: 0.38630 (Simulation time: 0 hr 12 min 17 sec) 
Heartbeat CPU  0 instructions:  339000001 cycles:  685276108 heartbeat IPC: 0.43681 cumulative IPC: 0.38648 (Simulation time: 0 hr 12 min 19 sec) 
Heartbeat CPU  0 instructions:  340000000 cycles:  687436933 heartbeat IPC: 0.46279 cumulative IPC: 0.38675 (Simulation time: 0 hr 12 min 21 sec) 
Heartbeat CPU  0 instructions:  341000003 cycles:  689917628 heartbeat IPC: 0.40311 cumulative IPC: 0.38681 (Simulation time: 0 hr 12 min 23 sec) 
Heartbeat CPU  0 instructions:  342000001 cycles:  692632092 heartbeat IPC: 0.36840 cumulative IPC: 0.38673 (Simulation time: 0 hr 12 min 26 sec) 
Heartbeat CPU  0 instructions:  343000003 cycles:  695359695 heartbeat IPC: 0.36662 cumulative IPC: 0.38665 (Simulation time: 0 hr 12 min 29 sec) 
Heartbeat CPU  0 instructions:  344000000 cycles:  696969939 heartbeat IPC: 0.62102 cumulative IPC: 0.38724 (Simulation time: 0 hr 12 min 31 sec) 
Heartbeat CPU  0 instructions:  345000001 cycles:  700416399 heartbeat IPC: 0.29015 cumulative IPC: 0.38672 (Simulation time: 0 hr 12 min 34 sec) 
Heartbeat CPU  0 instructions:  346000000 cycles:  703871344 heartbeat IPC: 0.28944 cumulative IPC: 0.38619 (Simulation time: 0 hr 12 min 37 sec) 
Heartbeat CPU  0 instructions:  347000000 cycles:  705613352 heartbeat IPC: 0.57405 cumulative IPC: 0.38670 (Simulation time: 0 hr 12 min 39 sec) 
Heartbeat CPU  0 instructions:  348000000 cycles:  707078135 heartbeat IPC: 0.68269 cumulative IPC: 0.38738 (Simulation time: 0 hr 12 min 40 sec) 
Heartbeat CPU  0 instructions:  349000000 cycles:  709582666 heartbeat IPC: 0.39928 cumulative IPC: 0.38742 (Simulation time: 0 hr 12 min 43 sec) 
Heartbeat CPU  0 instructions:  350000000 cycles:  711842195 heartbeat IPC: 0.44257 cumulative IPC: 0.38762 (Simulation time: 0 hr 12 min 45 sec) 
Heartbeat CPU  0 instructions:  351000002 cycles:  714124628 heartbeat IPC: 0.43813 cumulative IPC: 0.38780 (Simulation time: 0 hr 12 min 47 sec) 
Heartbeat CPU  0 instructions:  352000000 cycles:  716598314 heartbeat IPC: 0.40425 cumulative IPC: 0.38786 (Simulation time: 0 hr 12 min 50 sec) 
Heartbeat CPU  0 instructions:  353000001 cycles:  719242815 heartbeat IPC: 0.37814 cumulative IPC: 0.38782 (Simulation time: 0 hr 12 min 52 sec) 
Heartbeat CPU  0 instructions:  354000001 cycles:  720794026 heartbeat IPC: 0.64466 cumulative IPC: 0.38843 (Simulation time: 0 hr 12 min 54 sec) 
Heartbeat CPU  0 instructions:  355000002 cycles:  724309771 heartbeat IPC: 0.28444 cumulative IPC: 0.38787 (Simulation time: 0 hr 12 min 58 sec) 
Heartbeat CPU  0 instructions:  356000000 cycles:  727707982 heartbeat IPC: 0.29427 cumulative IPC: 0.38739 (Simulation time: 0 hr 13 min 1 sec) 
Heartbeat CPU  0 instructions:  357000002 cycles:  729441918 heartbeat IPC: 0.57672 cumulative IPC: 0.38789 (Simulation time: 0 hr 13 min 2 sec) 
Heartbeat CPU  0 instructions:  358000000 cycles:  730954024 heartbeat IPC: 0.66133 cumulative IPC: 0.38851 (Simulation time: 0 hr 13 min 3 sec) 
Heartbeat CPU  0 instructions:  359000001 cycles:  733400989 heartbeat IPC: 0.40867 cumulative IPC: 0.38858 (Simulation time: 0 hr 13 min 6 sec) 
Heartbeat CPU  0 instructions:  360000000 cycles:  735708084 heartbeat IPC: 0.43345 cumulative IPC: 0.38874 (Simulation time: 0 hr 13 min 8 sec) 
Heartbeat CPU  0 instructions:  361000001 cycles:  738034962 heartbeat IPC: 0.42976 cumulative IPC: 0.38888 (Simulation time: 0 hr 13 min 10 sec) 
Heartbeat CPU  0 instructions:  362000000 cycles:  740384939 heartbeat IPC: 0.42554 cumulative IPC: 0.38901 (Simulation time: 0 hr 13 min 13 sec) 
Heartbeat CPU  0 instructions:  363000000 cycles:  743218109 heartbeat IPC: 0.35296 cumulative IPC: 0.38886 (Simulation time: 0 hr 13 min 16 sec) 
Heartbeat CPU  0 instructions:  364000000 cycles:  744632989 heartbeat IPC: 0.70677 cumulative IPC: 0.38952 (Simulation time: 0 hr 13 min 18 sec) 
Heartbeat CPU  0 instructions:  365000003 cycles:  748202833 heartbeat IPC: 0.28013 cumulative IPC: 0.38895 (Simulation time: 0 hr 13 min 21 sec) 
Heartbeat CPU  0 instructions:  366000000 cycles:  751558537 heartbeat IPC: 0.29800 cumulative IPC: 0.38850 (Simulation time: 0 hr 13 min 24 sec) 
Heartbeat CPU  0 instructions:  367000001 cycles:  753287327 heartbeat IPC: 0.57844 cumulative IPC: 0.38898 (Simulation time: 0 hr 13 min 25 sec) 
Heartbeat CPU  0 instructions:  368000000 cycles:  754843572 heartbeat IPC: 0.64257 cumulative IPC: 0.38955 (Simulation time: 0 hr 13 min 27 sec) 
Heartbeat CPU  0 instructions:  369000001 cycles:  757240320 heartbeat IPC: 0.41723 cumulative IPC: 0.38965 (Simulation time: 0 hr 13 min 29 sec) 
Heartbeat CPU  0 instructions:  370000003 cycles:  759586123 heartbeat IPC: 0.42629 cumulative IPC: 0.38977 (Simulation time: 0 hr 13 min 31 sec) 
Heartbeat CPU  0 instructions:  371000001 cycles:  761964033 heartbeat IPC: 0.42054 cumulative IPC: 0.38988 (Simulation time: 0 hr 13 min 34 sec) 
Heartbeat CPU  0 instructions:  372000000 cycles:  764255930 heartbeat IPC: 0.43632 cumulative IPC: 0.39003 (Simulation time: 0 hr 13 min 36 sec) 
Heartbeat CPU  0 instructions:  373000003 cycles:  767054089 heartbeat IPC: 0.35738 cumulative IPC: 0.38990 (Simulation time: 0 hr 13 min 39 sec) 
Heartbeat CPU  0 instructions:  374000001 cycles:  768418692 heartbeat IPC: 0.73281 cumulative IPC: 0.39057 (Simulation time: 0 hr 13 min 41 sec) 
Heartbeat CPU  0 instructions:  375000003 cycles:  772058367 heartbeat IPC: 0.27475 cumulative IPC: 0.38997 (Simulation time: 0 hr 13 min 44 sec) 
Heartbeat CPU  0 instructions:  376000000 cycles:  775377212 heartbeat IPC: 0.30131 cumulative IPC: 0.38956 (Simulation time: 0 hr 13 min 47 sec) 
Heartbeat CPU  0 instructions:  377000000 cycles:  777093513 heartbeat IPC: 0.58265 cumulative IPC: 0.39002 (Simulation time: 0 hr 13 min 48 sec) 
Heartbeat CPU  0 instructions:  378000003 cycles:  778706745 heartbeat IPC: 0.61988 cumulative IPC: 0.39054 (Simulation time: 0 hr 13 min 50 sec) 
Heartbeat CPU  0 instructions:  379000002 cycles:  781059019 heartbeat IPC: 0.42512 cumulative IPC: 0.39066 (Simulation time: 0 hr 13 min 52 sec) 
Heartbeat CPU  0 instructions:  380000000 cycles:  783461969 heartbeat IPC: 0.41615 cumulative IPC: 0.39074 (Simulation time: 0 hr 13 min 55 sec) 
Heartbeat CPU  0 instructions:  381000000 cycles:  785889287 heartbeat IPC: 0.41198 cumulative IPC: 0.39081 (Simulation time: 0 hr 13 min 57 sec) 
Heartbeat CPU  0 instructions:  382000003 cycles:  788160627 heartbeat IPC: 0.44027 cumulative IPC: 0.39097 (Simulation time: 0 hr 14 min 0 sec) 
Heartbeat CPU  0 instructions:  383000001 cycles:  790911656 heartbeat IPC: 0.36350 cumulative IPC: 0.39087 (Simulation time: 0 hr 14 min 2 sec) 
Heartbeat CPU  0 instructions:  384000000 cycles:  792232276 heartbeat IPC: 0.75722 cumulative IPC: 0.39153 (Simulation time: 0 hr 14 min 4 sec) 
Heartbeat CPU  0 instructions:  385000003 cycles:  796054849 heartbeat IPC: 0.26160 cumulative IPC: 0.39085 (Simulation time: 0 hr 14 min 8 sec) 
Heartbeat CPU  0 instructions:  386000002 cycles:  799194708 heartbeat IPC: 0.31849 cumulative IPC: 0.39054 (Simulation time: 0 hr 14 min 11 sec) 
Heartbeat CPU  0 instructions:  387000000 cycles:  800913801 heartbeat IPC: 0.58170 cumulative IPC: 0.39099 (Simulation time: 0 hr 14 min 12 sec) 
Heartbeat CPU  0 instructions:  388000000 cycles:  802577507 heartbeat IPC: 0.60107 cumulative IPC: 0.39146 (Simulation time: 0 hr 14 min 14 sec) 
Heartbeat CPU  0 instructions:  389000001 cycles:  804873051 heartbeat IPC: 0.43563 cumulative IPC: 0.39160 (Simulation time: 0 hr 14 min 16 sec) 
Heartbeat CPU  0 instructions:  390000002 cycles:  807340965 heartbeat IPC: 0.40520 cumulative IPC: 0.39165 (Simulation time: 0 hr 14 min 18 sec) 
Heartbeat CPU  0 instructions:  391000001 cycles:  809783615 heartbeat IPC: 0.40939 cumulative IPC: 0.39170 (Simulation time: 0 hr 14 min 21 sec) 
Heartbeat CPU  0 instructions:  392000000 cycles:  812040409 heartbeat IPC: 0.44311 cumulative IPC: 0.39186 (Simulation time: 0 hr 14 min 23 sec) 
Heartbeat CPU  0 instructions:  393000003 cycles:  814781347 heartbeat IPC: 0.36484 cumulative IPC: 0.39176 (Simulation time: 0 hr 14 min 26 sec) 
Heartbeat CPU  0 instructions:  394000002 cycles:  816077804 heartbeat IPC: 0.77133 cumulative IPC: 0.39242 (Simulation time: 0 hr 14 min 28 sec) 
Heartbeat CPU  0 instructions:  395000000 cycles:  820041371 heartbeat IPC: 0.25230 cumulative IPC: 0.39168 (Simulation time: 0 hr 14 min 32 sec) 
Heartbeat CPU  0 instructions:  396000000 cycles:  823083298 heartbeat IPC: 0.32874 cumulative IPC: 0.39143 (Simulation time: 0 hr 14 min 34 sec) 
Heartbeat CPU  0 instructions:  397000000 cycles:  824797072 heartbeat IPC: 0.58351 cumulative IPC: 0.39186 (Simulation time: 0 hr 14 min 35 sec) 
Heartbeat CPU  0 instructions:  398000000 cycles:  826503245 heartbeat IPC: 0.58611 cumulative IPC: 0.39230 (Simulation time: 0 hr 14 min 37 sec) 
Heartbeat CPU  0 instructions:  399000001 cycles:  828727005 heartbeat IPC: 0.44969 cumulative IPC: 0.39247 (Simulation time: 0 hr 14 min 39 sec) 
Heartbeat CPU  0 instructions:  400000000 cycles:  831286532 heartbeat IPC: 0.39070 cumulative IPC: 0.39246 (Simulation time: 0 hr 14 min 41 sec) 
Heartbeat CPU  0 instructions:  401000000 cycles:  833731143 heartbeat IPC: 0.40906 cumulative IPC: 0.39251 (Simulation time: 0 hr 14 min 44 sec) 
Heartbeat CPU  0 instructions:  402000000 cycles:  835945083 heartbeat IPC: 0.45168 cumulative IPC: 0.39268 (Simulation time: 0 hr 14 min 47 sec) 
Heartbeat CPU  0 instructions:  403000000 cycles:  838662917 heartbeat IPC: 0.36794 cumulative IPC: 0.39260 (Simulation time: 0 hr 14 min 49 sec) 
Heartbeat CPU  0 instructions:  404000000 cycles:  840149796 heartbeat IPC: 0.67255 cumulative IPC: 0.39313 (Simulation time: 0 hr 14 min 51 sec) 
Heartbeat CPU  0 instructions:  405000002 cycles:  843988375 heartbeat IPC: 0.26051 cumulative IPC: 0.39248 (Simulation time: 0 hr 14 min 55 sec) 
Heartbeat CPU  0 instructions:  406000000 cycles:  846946108 heartbeat IPC: 0.33810 cumulative IPC: 0.39227 (Simulation time: 0 hr 14 min 57 sec) 
Heartbeat CPU  0 instructions:  407000000 cycles:  848651849 heartbeat IPC: 0.58626 cumulative IPC: 0.39270 (Simulation time: 0 hr 14 min 59 sec) 
Heartbeat CPU  0 instructions:  408000000 cycles:  850388639 heartbeat IPC: 0.57577 cumulative IPC: 0.39310 (Simulation time: 0 hr 15 min 0 sec) 
Heartbeat CPU  0 instructions:  409000002 cycles:  852567162 heartbeat IPC: 0.45903 cumulative IPC: 0.39329 (Simulation time: 0 hr 15 min 3 sec) 
Heartbeat CPU  0 instructions:  410000000 cycles:  855195205 heartbeat IPC: 0.38051 cumulative IPC: 0.39324 (Simulation time: 0 hr 15 min 5 sec) 
Heartbeat CPU  0 instructions:  411000002 cycles:  857639516 heartbeat IPC: 0.40911 cumulative IPC: 0.39329 (Simulation time: 0 hr 15 min 7 sec) 
Heartbeat CPU  0 instructions:  412000000 cycles:  859853848 heartbeat IPC: 0.45160 cumulative IPC: 0.39345 (Simulation time: 0 hr 15 min 10 sec) 
Heartbeat CPU  0 instructions:  413000001 cycles:  862524791 heartbeat IPC: 0.37440 cumulative IPC: 0.39339 (Simulation time: 0 hr 15 min 12 sec) 
Heartbeat CPU  0 instructions:  414000003 cycles:  864094012 heartbeat IPC: 0.63726 cumulative IPC: 0.39387 (Simulation time: 0 hr 15 min 15 sec) 
Heartbeat CPU  0 instructions:  415000003 cycles:  867948210 heartbeat IPC: 0.25946 cumulative IPC: 0.39322 (Simulation time: 0 hr 15 min 18 sec) 
Heartbeat CPU  0 instructions:  416000000 cycles:  870787724 heartbeat IPC: 0.35217 cumulative IPC: 0.39308 (Simulation time: 0 hr 15 min 21 sec) 
Heartbeat CPU  0 instructions:  417000000 cycles:  872479087 heartbeat IPC: 0.59124 cumulative IPC: 0.39349 (Simulation time: 0 hr 15 min 22 sec) 
Heartbeat CPU  0 instructions:  418000000 cycles:  874257744 heartbeat IPC: 0.56222 cumulative IPC: 0.39387 (Simulation time: 0 hr 15 min 24 sec) 
Heartbeat CPU  0 instructions:  419000001 cycles:  876362040 heartbeat IPC: 0.47522 cumulative IPC: 0.39408 (Simulation time: 0 hr 15 min 26 sec) 
Heartbeat CPU  0 instructions:  420000000 cycles:  879092002 heartbeat IPC: 0.36631 cumulative IPC: 0.39398 (Simulation time: 0 hr 15 min 28 sec) 
Heartbeat CPU  0 instructions:  421000001 cycles:  881534772 heartbeat IPC: 0.40937 cumulative IPC: 0.39403 (Simulation time: 0 hr 15 min 31 sec) 
Heartbeat CPU  0 instructions:  422000003 cycles:  883717000 heartbeat IPC: 0.45825 cumulative IPC: 0.39420 (Simulation time: 0 hr 15 min 33 sec) 
Heartbeat CPU  0 instructions:  423000003 cycles:  886368233 heartbeat IPC: 0.37718 cumulative IPC: 0.39415 (Simulation time: 0 hr 15 min 36 sec) 
Heartbeat CPU  0 instructions:  424000000 cycles:  888000676 heartbeat IPC: 0.61258 cumulative IPC: 0.39458 (Simulation time: 0 hr 15 min 38 sec) 
Heartbeat CPU  0 instructions:  425000001 cycles:  891877840 heartbeat IPC: 0.25792 cumulative IPC: 0.39394 (Simulation time: 0 hr 15 min 42 sec) 
Heartbeat CPU  0 instructions:  426000002 cycles:  894633003 heartbeat IPC: 0.36296 cumulative IPC: 0.39384 (Simulation time: 0 hr 15 min 44 sec) 
Heartbeat CPU  0 instructions:  427000002 cycles:  896318478 heartbeat IPC: 0.59330 cumulative IPC: 0.39424 (Simulation time: 0 hr 15 min 45 sec) 
Heartbeat CPU  0 instructions:  428000000 cycles:  898128087 heartbeat IPC: 0.55260 cumulative IPC: 0.39459 (Simulation time: 0 hr 15 min 47 sec) 
Heartbeat CPU  0 instructions:  429000001 cycles:  900184721 heartbeat IPC: 0.48623 cumulative IPC: 0.39481 (Simulation time: 0 hr 15 min 49 sec) 
Heartbeat CPU  0 instructions:  430000002 cycles:  902968050 heartbeat IPC: 0.35928 cumulative IPC: 0.39469 (Simulation time: 0 hr 15 min 51 sec) 
Heartbeat CPU  0 instructions:  431000003 cycles:  905392444 heartbeat IPC: 0.41247 cumulative IPC: 0.39475 (Simulation time: 0 hr 15 min 54 sec) 
Heartbeat CPU  0 instructions:  432000000 cycles:  906950837 heartbeat IPC: 0.64168 cumulative IPC: 0.39520 (Simulation time: 0 hr 15 min 57 sec) 
Heartbeat CPU  0 instructions:  433000002 cycles:  912574053 heartbeat IPC: 0.17783 cumulative IPC: 0.39376 (Simulation time: 0 hr 16 min 1 sec) 
Heartbeat CPU  0 instructions:  434000000 cycles:  917423784 heartbeat IPC: 0.20620 cumulative IPC: 0.39269 (Simulation time: 0 hr 16 min 4 sec) 
Heartbeat CPU  0 instructions:  435000001 cycles:  921315088 heartbeat IPC: 0.25698 cumulative IPC: 0.39207 (Simulation time: 0 hr 16 min 8 sec) 
Heartbeat CPU  0 instructions:  436000000 cycles:  925951490 heartbeat IPC: 0.21568 cumulative IPC: 0.39112 (Simulation time: 0 hr 16 min 12 sec) 
Heartbeat CPU  0 instructions:  437000003 cycles:  929404086 heartbeat IPC: 0.28964 cumulative IPC: 0.39071 (Simulation time: 0 hr 16 min 16 sec) 
Heartbeat CPU  0 instructions:  438000002 cycles:  932275779 heartbeat IPC: 0.34823 cumulative IPC: 0.39057 (Simulation time: 0 hr 16 min 19 sec) 
Heartbeat CPU  0 instructions:  439000000 cycles:  936332021 heartbeat IPC: 0.24653 cumulative IPC: 0.38990 (Simulation time: 0 hr 16 min 22 sec) 
Heartbeat CPU  0 instructions:  440000000 cycles:  939909473 heartbeat IPC: 0.27953 cumulative IPC: 0.38945 (Simulation time: 0 hr 16 min 24 sec) 
Heartbeat CPU  0 instructions:  441000000 cycles:  943538712 heartbeat IPC: 0.27554 cumulative IPC: 0.38898 (Simulation time: 0 hr 16 min 27 sec) 
Heartbeat CPU  0 instructions:  442000000 cycles:  946282031 heartbeat IPC: 0.36452 cumulative IPC: 0.38890 (Simulation time: 0 hr 16 min 30 sec) 
Heartbeat CPU  0 instructions:  443000002 cycles:  948814900 heartbeat IPC: 0.39481 cumulative IPC: 0.38892 (Simulation time: 0 hr 16 min 32 sec) 
Heartbeat CPU  0 instructions:  444000000 cycles:  950781197 heartbeat IPC: 0.50857 cumulative IPC: 0.38918 (Simulation time: 0 hr 16 min 35 sec) 
Heartbeat CPU  0 instructions:  445000002 cycles:  953097230 heartbeat IPC: 0.43177 cumulative IPC: 0.38929 (Simulation time: 0 hr 16 min 37 sec) 
Heartbeat CPU  0 instructions:  446000003 cycles:  954466647 heartbeat IPC: 0.73024 cumulative IPC: 0.38982 (Simulation time: 0 hr 16 min 40 sec) 
Heartbeat CPU  0 instructions:  447000001 cycles:  956109287 heartbeat IPC: 0.60877 cumulative IPC: 0.39022 (Simulation time: 0 hr 16 min 42 sec) 
Heartbeat CPU  0 instructions:  448000000 cycles:  959254066 heartbeat IPC: 0.31799 cumulative IPC: 0.38997 (Simulation time: 0 hr 16 min 45 sec) 
Heartbeat CPU  0 instructions:  449000003 cycles:  961730037 heartbeat IPC: 0.40388 cumulative IPC: 0.39001 (Simulation time: 0 hr 16 min 48 sec) 
Heartbeat CPU  0 instructions:  450000000 cycles:  963919013 heartbeat IPC: 0.45683 cumulative IPC: 0.39017 (Simulation time: 0 hr 16 min 50 sec) 
Heartbeat CPU  0 instructions:  451000003 cycles:  966298453 heartbeat IPC: 0.42027 cumulative IPC: 0.39025 (Simulation time: 0 hr 16 min 53 sec) 
Heartbeat CPU  0 instructions:  452000000 cycles:  967971013 heartbeat IPC: 0.59788 cumulative IPC: 0.39064 (Simulation time: 0 hr 16 min 55 sec) 
Heartbeat CPU  0 instructions:  453000003 cycles:  971104261 heartbeat IPC: 0.31916 cumulative IPC: 0.39039 (Simulation time: 0 hr 16 min 58 sec) 
Heartbeat CPU  0 instructions:  454000000 cycles:  974850865 heartbeat IPC: 0.26691 cumulative IPC: 0.38988 (Simulation time: 0 hr 17 min 1 sec) 
Heartbeat CPU  0 instructions:  455000000 cycles:  976611281 heartbeat IPC: 0.56805 cumulative IPC: 0.39022 (Simulation time: 0 hr 17 min 3 sec) 
Heartbeat CPU  0 instructions:  456000000 cycles:  978110525 heartbeat IPC: 0.66700 cumulative IPC: 0.39068 (Simulation time: 0 hr 17 min 4 sec) 
Heartbeat CPU  0 instructions:  457000002 cycles:  980427356 heartbeat IPC: 0.43162 cumulative IPC: 0.39078 (Simulation time: 0 hr 17 min 6 sec) 
Heartbeat CPU  0 instructions:  458000002 cycles:  982616089 heartbeat IPC: 0.45689 cumulative IPC: 0.39094 (Simulation time: 0 hr 17 min 8 sec) 
Heartbeat CPU  0 instructions:  459000000 cycles:  985028381 heartbeat IPC: 0.41454 cumulative IPC: 0.39100 (Simulation time: 0 hr 17 min 11 sec) 
Heartbeat CPU  0 instructions:  460000000 cycles:  987797987 heartbeat IPC: 0.36106 cumulative IPC: 0.39091 (Simulation time: 0 hr 17 min 14 sec) 
Heartbeat CPU  0 instructions:  461000001 cycles:  990548851 heartbeat IPC: 0.36352 cumulative IPC: 0.39083 (Simulation time: 0 hr 17 min 16 sec) 
Heartbeat CPU  0 instructions:  462000001 cycles:  992089465 heartbeat IPC: 0.64909 cumulative IPC: 0.39126 (Simulation time: 0 hr 17 min 18 sec) 
Heartbeat CPU  0 instructions:  463000000 cycles:  995617597 heartbeat IPC: 0.28344 cumulative IPC: 0.39085 (Simulation time: 0 hr 17 min 22 sec) 
Heartbeat CPU  0 instructions:  464000000 cycles:  999004703 heartbeat IPC: 0.29524 cumulative IPC: 0.39050 (Simulation time: 0 hr 17 min 25 sec) 
Heartbeat CPU  0 instructions:  465000002 cycles: 1000740627 heartbeat IPC: 0.57606 cumulative IPC: 0.39085 (Simulation time: 0 hr 17 min 26 sec) 
Heartbeat CPU  0 instructions:  466000002 cycles: 1002263618 heartbeat IPC: 0.65660 cumulative IPC: 0.39128 (Simulation time: 0 hr 17 min 27 sec) 
Heartbeat CPU  0 instructions:  467000003 cycles: 1004694647 heartbeat IPC: 0.41135 cumulative IPC: 0.39133 (Simulation time: 0 hr 17 min 30 sec) 
Heartbeat CPU  0 instructions:  468000000 cycles: 1007018338 heartbeat IPC: 0.43035 cumulative IPC: 0.39143 (Simulation time: 0 hr 17 min 32 sec) 
Heartbeat CPU  0 instructions:  469000002 cycles: 1009355844 heartbeat IPC: 0.42781 cumulative IPC: 0.39152 (Simulation time: 0 hr 17 min 34 sec) 
Heartbeat CPU  0 instructions:  470000000 cycles: 1011691516 heartbeat IPC: 0.42814 cumulative IPC: 0.39161 (Simulation time: 0 hr 17 min 37 sec) 
Heartbeat CPU  0 instructions:  471000002 cycles: 1014515295 heartbeat IPC: 0.35414 cumulative IPC: 0.39150 (Simulation time: 0 hr 17 min 40 sec) 
Heartbeat CPU  0 instructions:  472000000 cycles: 1015917077 heartbeat IPC: 0.71338 cumulative IPC: 0.39198 (Simulation time: 0 hr 17 min 42 sec) 
Heartbeat CPU  0 instructions:  473000003 cycles: 1019503539 heartbeat IPC: 0.27883 cumulative IPC: 0.39155 (Simulation time: 0 hr 17 min 45 sec) 
Heartbeat CPU  0 instructions:  474000001 cycles: 1022857083 heartbeat IPC: 0.29819 cumulative IPC: 0.39122 (Simulation time: 0 hr 17 min 48 sec) 
Heartbeat CPU  0 instructions:  475000000 cycles: 1024585021 heartbeat IPC: 0.57872 cumulative IPC: 0.39156 (Simulation time: 0 hr 17 min 49 sec) 
Heartbeat CPU  0 instructions:  476000000 cycles: 1026158448 heartbeat IPC: 0.63556 cumulative IPC: 0.39196 (Simulation time: 0 hr 17 min 51 sec) 
Heartbeat CPU  0 instructions:  477000003 cycles: 1028553502 heartbeat IPC: 0.41753 cumulative IPC: 0.39202 (Simulation time: 0 hr 17 min 53 sec) 
Heartbeat CPU  0 instructions:  478000000 cycles: 1030907705 heartbeat IPC: 0.42477 cumulative IPC: 0.39210 (Simulation time: 0 hr 17 min 55 sec) 
Heartbeat CPU  0 instructions:  479000001 cycles: 1033327931 heartbeat IPC: 0.41318 cumulative IPC: 0.39216 (Simulation time: 0 hr 17 min 58 sec) 
Heartbeat CPU  0 instructions:  480000000 cycles: 1035619114 heartbeat IPC: 0.43646 cumulative IPC: 0.39226 (Simulation time: 0 hr 18 min 1 sec) 
Heartbeat CPU  0 instructions:  481000002 cycles: 1038411227 heartbeat IPC: 0.35815 cumulative IPC: 0.39216 (Simulation time: 0 hr 18 min 3 sec) 
Heartbeat CPU  0 instructions:  482000003 cycles: 1039760801 heartbeat IPC: 0.74098 cumulative IPC: 0.39265 (Simulation time: 0 hr 18 min 5 sec) 
Heartbeat CPU  0 instructions:  483000000 cycles: 1043480385 heartbeat IPC: 0.26885 cumulative IPC: 0.39218 (Simulation time: 0 hr 18 min 9 sec) 
Heartbeat CPU  0 instructions:  484000000 cycles: 1046735631 heartbeat IPC: 0.30720 cumulative IPC: 0.39189 (Simulation time: 0 hr 18 min 11 sec) 
Heartbeat CPU  0 instructions:  485000000 cycles: 1048451893 heartbeat IPC: 0.58266 cumulative IPC: 0.39223 (Simulation time: 0 hr 18 min 13 sec) 
Heartbeat CPU  0 instructions:  486000003 cycles: 1050084581 heartbeat IPC: 0.61249 cumulative IPC: 0.39259 (Simulation time: 0 hr 18 min 14 sec) 
Heartbeat CPU  0 instructions:  487000000 cycles: 1052403144 heartbeat IPC: 0.43130 cumulative IPC: 0.39268 (Simulation time: 0 hr 18 min 17 sec) 
Heartbeat CPU  0 instructions:  488000000 cycles: 1054833564 heartbeat IPC: 0.41145 cumulative IPC: 0.39273 (Simulation time: 0 hr 18 min 19 sec) 
Heartbeat CPU  0 instructions:  489000000 cycles: 1057272877 heartbeat IPC: 0.40995 cumulative IPC: 0.39277 (Simulation time: 0 hr 18 min 21 sec) 
Heartbeat CPU  0 instructions:  490000002 cycles: 1059534562 heartbeat IPC: 0.44215 cumulative IPC: 0.39288 (Simulation time: 0 hr 18 min 24 sec) 
Heartbeat CPU  0 instructions:  491000002 cycles: 1062296278 heartbeat IPC: 0.36209 cumulative IPC: 0.39280 (Simulation time: 0 hr 18 min 26 sec) 
Heartbeat CPU  0 instructions:  492000000 cycles: 1063621649 heartbeat IPC: 0.75450 cumulative IPC: 0.39328 (Simulation time: 0 hr 18 min 28 sec) 
Heartbeat CPU  0 instructions:  493000001 cycles: 1067523139 heartbeat IPC: 0.25631 cumulative IPC: 0.39275 (Simulation time: 0 hr 18 min 32 sec) 
Heartbeat CPU  0 instructions:  494000000 cycles: 1070622975 heartbeat IPC: 0.32260 cumulative IPC: 0.39253 (Simulation time: 0 hr 18 min 35 sec) 
Heartbeat CPU  0 instructions:  495000000 cycles: 1072335892 heartbeat IPC: 0.58380 cumulative IPC: 0.39286 (Simulation time: 0 hr 18 min 36 sec) 
Heartbeat CPU  0 instructions:  496000000 cycles: 1074013570 heartbeat IPC: 0.59606 cumulative IPC: 0.39319 (Simulation time: 0 hr 18 min 38 sec) 
Heartbeat CPU  0 instructions:  497000000 cycles: 1076276613 heartbeat IPC: 0.44188 cumulative IPC: 0.39330 (Simulation time: 0 hr 18 min 40 sec) 
Heartbeat CPU  0 instructions:  498000000 cycles: 1078774019 heartbeat IPC: 0.40042 cumulative IPC: 0.39332 (Simulation time: 0 hr 18 min 42 sec) 
Heartbeat CPU  0 instructions:  499000000 cycles: 1081226542 heartbeat IPC: 0.40774 cumulative IPC: 0.39336 (Simulation time: 0 hr 18 min 45 sec) 
Heartbeat CPU  0 instructions:  500000000 cycles: 1083456552 heartbeat IPC: 0.44843 cumulative IPC: 0.39348 (Simulation time: 0 hr 18 min 47 sec) 
Heartbeat CPU  0 instructions:  501000003 cycles: 1086198103 heartbeat IPC: 0.36476 cumulative IPC: 0.39340 (Simulation time: 0 hr 18 min 50 sec) 
Heartbeat CPU  0 instructions:  502000000 cycles: 1087615874 heartbeat IPC: 0.70533 cumulative IPC: 0.39383 (Simulation time: 0 hr 18 min 52 sec) 
Heartbeat CPU  0 instructions:  503000003 cycles: 1091476233 heartbeat IPC: 0.25904 cumulative IPC: 0.39332 (Simulation time: 0 hr 18 min 56 sec) 
Heartbeat CPU  0 instructions:  504000000 cycles: 1094490367 heartbeat IPC: 0.33177 cumulative IPC: 0.39314 (Simulation time: 0 hr 18 min 58 sec) 
Heartbeat CPU  0 instructions:  505000000 cycles: 1096202617 heartbeat IPC: 0.58403 cumulative IPC: 0.39346 (Simulation time: 0 hr 18 min 59 sec) 
Heartbeat CPU  0 instructions:  506000000 cycles: 1097927791 heartbeat IPC: 0.57965 cumulative IPC: 0.39377 (Simulation time: 0 hr 19 min 1 sec) 
Heartbeat CPU  0 instructions:  507000002 cycles: 1100123231 heartbeat IPC: 0.45549 cumulative IPC: 0.39390 (Simulation time: 0 hr 19 min 3 sec) 
Heartbeat CPU  0 instructions:  508000000 cycles: 1102708601 heartbeat IPC: 0.38679 cumulative IPC: 0.39389 (Simulation time: 0 hr 19 min 5 sec) 
Heartbeat CPU  0 instructions:  509000001 cycles: 1105136267 heartbeat IPC: 0.41192 cumulative IPC: 0.39393 (Simulation time: 0 hr 19 min 8 sec) 
Heartbeat CPU  0 instructions:  510000003 cycles: 1107366580 heartbeat IPC: 0.44837 cumulative IPC: 0.39405 (Simulation time: 0 hr 19 min 11 sec) 
Heartbeat CPU  0 instructions:  511000003 cycles: 1110088613 heartbeat IPC: 0.36737 cumulative IPC: 0.39398 (Simulation time: 0 hr 19 min 13 sec) 
Heartbeat CPU  0 instructions:  512000000 cycles: 1111612092 heartbeat IPC: 0.65639 cumulative IPC: 0.39436 (Simulation time: 0 hr 19 min 15 sec) 
Heartbeat CPU  0 instructions:  513000001 cycles: 1115456706 heartbeat IPC: 0.26010 cumulative IPC: 0.39387 (Simulation time: 0 hr 19 min 19 sec) 
Heartbeat CPU  0 instructions:  514000000 cycles: 1118345063 heartbeat IPC: 0.34622 cumulative IPC: 0.39374 (Simulation time: 0 hr 19 min 21 sec) 
Heartbeat CPU  0 instructions:  515000001 cycles: 1120044484 heartbeat IPC: 0.58844 cumulative IPC: 0.39405 (Simulation time: 0 hr 19 min 23 sec) 
Heartbeat CPU  0 instructions:  516000000 cycles: 1121807939 heartbeat IPC: 0.56707 cumulative IPC: 0.39434 (Simulation time: 0 hr 19 min 24 sec) 
Heartbeat CPU  0 instructions:  517000001 cycles: 1123948569 heartbeat IPC: 0.46715 cumulative IPC: 0.39449 (Simulation time: 0 hr 19 min 27 sec) 
Heartbeat CPU  0 instructions:  518000001 cycles: 1126621628 heartbeat IPC: 0.37410 cumulative IPC: 0.39443 (Simulation time: 0 hr 19 min 29 sec) 
Heartbeat CPU  0 instructions:  519000002 cycles: 1129072382 heartbeat IPC: 0.40804 cumulative IPC: 0.39447 (Simulation time: 0 hr 19 min 31 sec) 
Heartbeat CPU  0 instructions:  520000000 cycles: 1131272885 heartbeat IPC: 0.45444 cumulative IPC: 0.39459 (Simulation time: 0 hr 19 min 34 sec) 
Heartbeat CPU  0 instructions:  521000000 cycles: 1133973998 heartbeat IPC: 0.37022 cumulative IPC: 0.39453 (Simulation time: 0 hr 19 min 36 sec) 
Heartbeat CPU  0 instructions:  522000002 cycles: 1135588986 heartbeat IPC: 0.61920 cumulative IPC: 0.39487 (Simulation time: 0 hr 19 min 39 sec) 
Heartbeat CPU  0 instructions:  523000000 cycles: 1139443038 heartbeat IPC: 0.25947 cumulative IPC: 0.39438 (Simulation time: 0 hr 19 min 42 sec) 
Heartbeat CPU  0 instructions:  524000000 cycles: 1142247153 heartbeat IPC: 0.35662 cumulative IPC: 0.39428 (Simulation time: 0 hr 19 min 44 sec) 
Heartbeat CPU  0 instructions:  525000003 cycles: 1143941974 heartbeat IPC: 0.59003 cumulative IPC: 0.39459 (Simulation time: 0 hr 19 min 46 sec) 
Heartbeat CPU  0 instructions:  526000002 cycles: 1145737771 heartbeat IPC: 0.55686 cumulative IPC: 0.39486 (Simulation time: 0 hr 19 min 48 sec) 
Heartbeat CPU  0 instructions:  527000001 cycles: 1147826853 heartbeat IPC: 0.47868 cumulative IPC: 0.39502 (Simulation time: 0 hr 19 min 50 sec) 
Heartbeat CPU  0 instructions:  528000000 cycles: 1150588961 heartbeat IPC: 0.36204 cumulative IPC: 0.39494 (Simulation time: 0 hr 19 min 52 sec) 
Heartbeat CPU  0 instructions:  529000001 cycles: 1153033099 heartbeat IPC: 0.40914 cumulative IPC: 0.39497 (Simulation time: 0 hr 19 min 55 sec) 
Heartbeat CPU  0 instructions:  530000001 cycles: 1155213697 heartbeat IPC: 0.45859 cumulative IPC: 0.39510 (Simulation time: 0 hr 19 min 57 sec) 
Heartbeat CPU  0 instructions:  531000001 cycles: 1157869653 heartbeat IPC: 0.37651 cumulative IPC: 0.39505 (Simulation time: 0 hr 20 min 0 sec) 
Heartbeat CPU  0 instructions:  532000000 cycles: 1159545425 heartbeat IPC: 0.59674 cumulative IPC: 0.39536 (Simulation time: 0 hr 20 min 2 sec) 
Heartbeat CPU  0 instructions:  533000003 cycles: 1163427329 heartbeat IPC: 0.25761 cumulative IPC: 0.39487 (Simulation time: 0 hr 20 min 6 sec) 
Heartbeat CPU  0 instructions:  534000001 cycles: 1166132989 heartbeat IPC: 0.36959 cumulative IPC: 0.39481 (Simulation time: 0 hr 20 min 8 sec) 
Heartbeat CPU  0 instructions:  535000003 cycles: 1167819673 heartbeat IPC: 0.59288 cumulative IPC: 0.39512 (Simulation time: 0 hr 20 min 9 sec) 
Heartbeat CPU  0 instructions:  536000000 cycles: 1169646131 heartbeat IPC: 0.54751 cumulative IPC: 0.39537 (Simulation time: 0 hr 20 min 11 sec) 
Heartbeat CPU  0 instructions:  537000001 cycles: 1171674273 heartbeat IPC: 0.49306 cumulative IPC: 0.39555 (Simulation time: 0 hr 20 min 13 sec) 
Heartbeat CPU  0 instructions:  538000002 cycles: 1174519577 heartbeat IPC: 0.35146 cumulative IPC: 0.39543 (Simulation time: 0 hr 20 min 15 sec) 
Heartbeat CPU  0 instructions:  539000000 cycles: 1176927909 heartbeat IPC: 0.41522 cumulative IPC: 0.39548 (Simulation time: 0 hr 20 min 18 sec) 
Heartbeat CPU  0 instructions:  540000000 cycles: 1179170587 heartbeat IPC: 0.44590 cumulative IPC: 0.39558 (Simulation time: 0 hr 20 min 21 sec) 
Heartbeat CPU  0 instructions:  541000002 cycles: 1181789038 heartbeat IPC: 0.38191 cumulative IPC: 0.39555 (Simulation time: 0 hr 20 min 23 sec) 
Heartbeat CPU  0 instructions:  542000001 cycles: 1183470375 heartbeat IPC: 0.59476 cumulative IPC: 0.39585 (Simulation time: 0 hr 20 min 25 sec) 
Heartbeat CPU  0 instructions:  543000003 cycles: 1187370471 heartbeat IPC: 0.25640 cumulative IPC: 0.39536 (Simulation time: 0 hr 20 min 29 sec) 
Heartbeat CPU  0 instructions:  544000000 cycles: 1190014080 heartbeat IPC: 0.37827 cumulative IPC: 0.39532 (Simulation time: 0 hr 20 min 31 sec) 
Heartbeat CPU  0 instructions:  545000000 cycles: 1191686694 heartbeat IPC: 0.59787 cumulative IPC: 0.39562 (Simulation time: 0 hr 20 min 32 sec) 
Heartbeat CPU  0 instructions:  546000002 cycles: 1193539326 heartbeat IPC: 0.53977 cumulative IPC: 0.39586 (Simulation time: 0 hr 20 min 34 sec) 
Heartbeat CPU  0 instructions:  547000001 cycles: 1195516519 heartbeat IPC: 0.50577 cumulative IPC: 0.39605 (Simulation time: 0 hr 20 min 37 sec) 
Heartbeat CPU  0 instructions:  548000000 cycles: 1198406034 heartbeat IPC: 0.34608 cumulative IPC: 0.39592 (Simulation time: 0 hr 20 min 39 sec) 
Heartbeat CPU  0 instructions:  549000003 cycles: 1200814993 heartbeat IPC: 0.41512 cumulative IPC: 0.39597 (Simulation time: 0 hr 20 min 42 sec) 
Heartbeat CPU  0 instructions:  550000000 cycles: 1202282819 heartbeat IPC: 0.68128 cumulative IPC: 0.39633 (Simulation time: 0 hr 20 min 44 sec) 
Heartbeat CPU  0 instructions:  551000000 cycles: 1208277791 heartbeat IPC: 0.16681 cumulative IPC: 0.39513 (Simulation time: 0 hr 20 min 48 sec) 
Heartbeat CPU  0 instructions:  552000000 cycles: 1212769354 heartbeat IPC: 0.22264 cumulative IPC: 0.39445 (Simulation time: 0 hr 20 min 52 sec) 
Heartbeat CPU  0 instructions:  553000001 cycles: 1216770579 heartbeat IPC: 0.24992 cumulative IPC: 0.39395 (Simulation time: 0 hr 20 min 55 sec) 
Heartbeat CPU  0 instructions:  554000003 cycles: 1221462991 heartbeat IPC: 0.21311 cumulative IPC: 0.39321 (Simulation time: 0 hr 21 min 0 sec) 
Heartbeat CPU  0 instructions:  555000002 cycles: 1224796227 heartbeat IPC: 0.30001 cumulative IPC: 0.39295 (Simulation time: 0 hr 21 min 3 sec) 
Heartbeat CPU  0 instructions:  556000000 cycles: 1227708373 heartbeat IPC: 0.34339 cumulative IPC: 0.39282 (Simulation time: 0 hr 21 min 6 sec) 
Heartbeat CPU  0 instructions:  557000000 cycles: 1231812109 heartbeat IPC: 0.24368 cumulative IPC: 0.39230 (Simulation time: 0 hr 21 min 9 sec) 
Heartbeat CPU  0 instructions:  558000001 cycles: 1235379546 heartbeat IPC: 0.28031 cumulative IPC: 0.39195 (Simulation time: 0 hr 21 min 12 sec) 
Heartbeat CPU  0 instructions:  559000000 cycles: 1239003072 heartbeat IPC: 0.27597 cumulative IPC: 0.39160 (Simulation time: 0 hr 21 min 15 sec) 
Heartbeat CPU  0 instructions:  560000000 cycles: 1241714758 heartbeat IPC: 0.36877 cumulative IPC: 0.39154 (Simulation time: 0 hr 21 min 17 sec) 
Heartbeat CPU  0 instructions:  561000001 cycles: 1244257874 heartbeat IPC: 0.39322 cumulative IPC: 0.39155 (Simulation time: 0 hr 21 min 20 sec) 
Heartbeat CPU  0 instructions:  562000000 cycles: 1246233972 heartbeat IPC: 0.50605 cumulative IPC: 0.39174 (Simulation time: 0 hr 21 min 22 sec) 
Heartbeat CPU  0 instructions:  563000002 cycles: 1248479745 heartbeat IPC: 0.44528 cumulative IPC: 0.39184 (Simulation time: 0 hr 21 min 25 sec) 
Heartbeat CPU  0 instructions:  564000000 cycles: 1249876542 heartbeat IPC: 0.71592 cumulative IPC: 0.39222 (Simulation time: 0 hr 21 min 27 sec) 
Heartbeat CPU  0 instructions:  565000000 cycles: 1251603439 heartbeat IPC: 0.57907 cumulative IPC: 0.39250 (Simulation time: 0 hr 21 min 29 sec) 
Heartbeat CPU  0 instructions:  566000001 cycles: 1254636717 heartbeat IPC: 0.32968 cumulative IPC: 0.39234 (Simulation time: 0 hr 21 min 32 sec) 
Heartbeat CPU  0 instructions:  567000000 cycles: 1257105936 heartbeat IPC: 0.40499 cumulative IPC: 0.39236 (Simulation time: 0 hr 21 min 35 sec) 
Heartbeat CPU  0 instructions:  568000000 cycles: 1259238589 heartbeat IPC: 0.46890 cumulative IPC: 0.39250 (Simulation time: 0 hr 21 min 38 sec) 
Heartbeat CPU  0 instructions:  569000000 cycles: 1261657238 heartbeat IPC: 0.41345 cumulative IPC: 0.39254 (Simulation time: 0 hr 21 min 40 sec) 
Heartbeat CPU  0 instructions:  570000000 cycles: 1263278618 heartbeat IPC: 0.61676 cumulative IPC: 0.39284 (Simulation time: 0 hr 21 min 42 sec) 
Heartbeat CPU  0 instructions:  571000000 cycles: 1266507945 heartbeat IPC: 0.30966 cumulative IPC: 0.39262 (Simulation time: 0 hr 21 min 46 sec) 
Heartbeat CPU  0 instructions:  572000000 cycles: 1270199259 heartbeat IPC: 0.27091 cumulative IPC: 0.39225 (Simulation time: 0 hr 21 min 49 sec) 
Heartbeat CPU  0 instructions:  573000002 cycles: 1271947399 heartbeat IPC: 0.57204 cumulative IPC: 0.39251 (Simulation time: 0 hr 21 min 50 sec) 
Heartbeat CPU  0 instructions:  574000002 cycles: 1273420458 heartbeat IPC: 0.67886 cumulative IPC: 0.39286 (Simulation time: 0 hr 21 min 52 sec) 
Heartbeat CPU  0 instructions:  575000000 cycles: 1275750008 heartbeat IPC: 0.42927 cumulative IPC: 0.39293 (Simulation time: 0 hr 21 min 54 sec) 
Heartbeat CPU  0 instructions:  576000000 cycles: 1277992642 heartbeat IPC: 0.44590 cumulative IPC: 0.39303 (Simulation time: 0 hr 21 min 56 sec) 
Heartbeat CPU  0 instructions:  577000000 cycles: 1280547839 heartbeat IPC: 0.39136 cumulative IPC: 0.39302 (Simulation time: 0 hr 21 min 58 sec) 
Heartbeat CPU  0 instructions:  578000002 cycles: 1283313286 heartbeat IPC: 0.36161 cumulative IPC: 0.39295 (Simulation time: 0 hr 22 min 1 sec) 
Heartbeat CPU  0 instructions:  579000002 cycles: 1286488976 heartbeat IPC: 0.31489 cumulative IPC: 0.39275 (Simulation time: 0 hr 22 min 5 sec) 
Heartbeat CPU  0 instructions:  580000000 cycles: 1288725648 heartbeat IPC: 0.44709 cumulative IPC: 0.39285 (Simulation time: 0 hr 22 min 7 sec) 
Heartbeat CPU  0 instructions:  581000000 cycles: 1290944970 heartbeat IPC: 0.45059 cumulative IPC: 0.39295 (Simulation time: 0 hr 22 min 9 sec) 
Heartbeat CPU  0 instructions:  582000002 cycles: 1295168080 heartbeat IPC: 0.23679 cumulative IPC: 0.39242 (Simulation time: 0 hr 22 min 13 sec) 
Heartbeat CPU  0 instructions:  583000000 cycles: 1297214309 heartbeat IPC: 0.48870 cumulative IPC: 0.39258 (Simulation time: 0 hr 22 min 15 sec) 
Heartbeat CPU  0 instructions:  584000000 cycles: 1298863090 heartbeat IPC: 0.60651 cumulative IPC: 0.39286 (Simulation time: 0 hr 22 min 16 sec) 
Heartbeat CPU  0 instructions:  585000000 cycles: 1300809494 heartbeat IPC: 0.51377 cumulative IPC: 0.39305 (Simulation time: 0 hr 22 min 18 sec) 
Heartbeat CPU  0 instructions:  586000000 cycles: 1302839353 heartbeat IPC: 0.49265 cumulative IPC: 0.39322 (Simulation time: 0 hr 22 min 20 sec) 
Heartbeat CPU  0 instructions:  587000002 cycles: 1305746664 heartbeat IPC: 0.34396 cumulative IPC: 0.39310 (Simulation time: 0 hr 22 min 23 sec) 
Heartbeat CPU  0 instructions:  588000000 cycles: 1308303025 heartbeat IPC: 0.39118 cumulative IPC: 0.39310 (Simulation time: 0 hr 22 min 25 sec) 
Heartbeat CPU  0 instructions:  589000001 cycles: 1310538041 heartbeat IPC: 0.44742 cumulative IPC: 0.39319 (Simulation time: 0 hr 22 min 28 sec) 
Heartbeat CPU  0 instructions:  590000000 cycles: 1312970362 heartbeat IPC: 0.41113 cumulative IPC: 0.39323 (Simulation time: 0 hr 22 min 30 sec) 
Heartbeat CPU  0 instructions:  591000001 cycles: 1314799576 heartbeat IPC: 0.54668 cumulative IPC: 0.39345 (Simulation time: 0 hr 22 min 33 sec) 
Heartbeat CPU  0 instructions:  592000000 cycles: 1318735071 heartbeat IPC: 0.25410 cumulative IPC: 0.39302 (Simulation time: 0 hr 22 min 36 sec) 
Heartbeat CPU  0 instructions:  593000003 cycles: 1321223052 heartbeat IPC: 0.40193 cumulative IPC: 0.39303 (Simulation time: 0 hr 22 min 38 sec) 
Heartbeat CPU  0 instructions:  594000003 cycles: 1322892602 heartbeat IPC: 0.59896 cumulative IPC: 0.39331 (Simulation time: 0 hr 22 min 40 sec) 
Heartbeat CPU  0 instructions:  595000003 cycles: 1324747027 heartbeat IPC: 0.53925 cumulative IPC: 0.39352 (Simulation time: 0 hr 22 min 41 sec) 
Heartbeat CPU  0 instructions:  596000000 cycles: 1326726916 heartbeat IPC: 0.50508 cumulative IPC: 0.39370 (Simulation time: 0 hr 22 min 44 sec) 
Heartbeat CPU  0 instructions:  597000002 cycles: 1329793347 heartbeat IPC: 0.32611 cumulative IPC: 0.39353 (Simulation time: 0 hr 22 min 46 sec) 
Heartbeat CPU  0 instructions:  598000001 cycles: 1332189414 heartbeat IPC: 0.41735 cumulative IPC: 0.39358 (Simulation time: 0 hr 22 min 49 sec) 
Heartbeat CPU  0 instructions:  599000003 cycles: 1334584261 heartbeat IPC: 0.41756 cumulative IPC: 0.39362 (Simulation time: 0 hr 22 min 51 sec) 
Heartbeat CPU  0 instructions:  600000000 cycles: 1336988092 heartbeat IPC: 0.41600 cumulative IPC: 0.39367 (Simulation time: 0 hr 22 min 54 sec) 
Finished CPU 0 instructions: 500000000 cycles: 1270110667 cumulative IPC: 0.39367 (Simulation time: 0 hr 22 min 54 sec) 

ChampSim completed all CPUs

[ROI Statistics]
Core_0_instructions 500000000
Core_0_cycles 1270110667
Core_0_IPC 0.39367

Core_0_branch_prediction_accuracy 95.09196
Core_0_branch_MPKI 8.72608
Core_0_average_ROB_occupancy_at_mispredict 81.98088

Core_0_L1D_total_access 103740047
Core_0_L1D_total_hit 77208833
Core_0_L1D_total_miss 26531214
Core_0_L1D_loads 77801331
Core_0_L1D_load_hit 55210563
Core_0_L1D_load_miss 22590768
Core_0_L1D_RFOs 25938716
Core_0_L1D_RFO_hit 21998270
Core_0_L1D_RFO_miss 3940446
Core_0_L1D_prefetches 0
Core_0_L1D_prefetch_hit 0
Core_0_L1D_prefetch_miss 0
Core_0_L1D_writebacks 0
Core_0_L1D_writeback_hit 0
Core_0_L1D_writeback_miss 0
Core_0_L1D_prefetch_requested 0
Core_0_L1D_prefetch_dropped 0
Core_0_L1D_prefetch_issued 0
Core_0_L1D_prefetch_filled 0
Core_0_L1D_prefetch_useful 0
Core_0_L1D_prefetch_useless 0
Core_0_L1D_prefetch_late 0
Core_0_L1D_average_miss_latency 91.14554

Core_0_L1D_rq_access 150251224
Core_0_L1D_rq_forward 0
Core_0_L1D_rq_merged 66061066
Core_0_L1D_rq_to_cache 84190121
Core_0_L1D_rq_full 0

Core_0_L1D_wq_access 35310153
Core_0_L1D_wq_forward 37
Core_0_L1D_wq_merged 32665
Core_0_L1D_wq_to_cache 35277488
Core_0_L1D_wq_full 4488906

Core_0_L1D_pq_access 0
Core_0_L1D_pq_forward 0
Core_0_L1D_pq_merged 0
Core_0_L1D_pq_to_cache 0
Core_0_L1D_pq_full 0

Core_0_L1D_acc_epochs 1256195
Core_0_L1D_acc_level_0 1256195
Core_0_L1D_acc_level_1 0
Core_0_L1D_acc_level_2 0
Core_0_L1D_acc_level_3 0
Core_0_L1D_acc_level_4 0
Core_0_L1D_acc_level_5 0
Core_0_L1D_acc_level_6 0
Core_0_L1D_acc_level_7 0
Core_0_L1D_acc_level_8 0
Core_0_L1D_acc_level_9 0

Core_0_L1I_total_access 103592612
Core_0_L1I_total_hit 103589414
Core_0_L1I_total_miss 3198
Core_0_L1I_loads 103592612
Core_0_L1I_load_hit 103589414
Core_0_L1I_load_miss 3198
Core_0_L1I_RFOs 0
Core_0_L1I_RFO_hit 0
Core_0_L1I_RFO_miss 0
Core_0_L1I_prefetches 0
Core_0_L1I_prefetch_hit 0
Core_0_L1I_prefetch_miss 0
Core_0_L1I_writebacks 0
Core_0_L1I_writeback_hit 0
Core_0_L1I_writeback_miss 0
Core_0_L1I_prefetch_requested 0
Core_0_L1I_prefetch_dropped 0
Core_0_L1I_prefetch_issued 0
Core_0_L1I_prefetch_filled 0
Core_0_L1I_prefetch_useful 0
Core_0_L1I_prefetch_useless 0
Core_0_L1I_prefetch_late 0
Core_0_L1I_average_miss_latency 255.62351

Core_0_L1I_rq_access 500000000
Core_0_L1I_rq_forward 0
Core_0_L1I_rq_merged 396404289
Core_0_L1I_rq_to_cache 103595711
Core_0_L1I_rq_full 0

Core_0_L1I_wq_access 0
Core_0_L1I_wq_forward 0
Core_0_L1I_wq_merged 0
Core_0_L1I_wq_to_cache 0
Core_0_L1I_wq_full 0

Core_0_L1I_pq_access 0
Core_0_L1I_pq_forward 0
Core_0_L1I_pq_merged 0
Core_0_L1I_pq_to_cache 0
Core_0_L1I_pq_full 0

Core_0_L1I_acc_epochs 1256195
Core_0_L1I_acc_level_0 1256195
Core_0_L1I_acc_level_1 0
Core_0_L1I_acc_level_2 0
Core_0_L1I_acc_level_3 0
Core_0_L1I_acc_level_4 0
Core_0_L1I_acc_level_5 0
Core_0_L1I_acc_level_6 0
Core_0_L1I_acc_level_7 0
Core_0_L1I_acc_level_8 0
Core_0_L1I_acc_level_9 0

Core_0_L2C_total_access 48323173
Core_0_L2C_total_hit 25162466
Core_0_L2C_total_miss 23160707
Core_0_L2C_loads 22590957
Core_0_L2C_load_hit 8611632
Core_0_L2C_load_miss 13979325
Core_0_L2C_RFOs 3939981
Core_0_L2C_RFO_hit 461058
Core_0_L2C_RFO_miss 3478923
Core_0_L2C_prefetches 10847948
Core_0_L2C_prefetch_hit 5147198
Core_0_L2C_prefetch_miss 5700750
Core_0_L2C_writebacks 10944287
Core_0_L2C_writeback_hit 10942578
Core_0_L2C_writeback_miss 1709
Core_0_L2C_prefetch_requested 51865776
Core_0_L2C_prefetch_dropped 0
Core_0_L2C_prefetch_issued 51865776
Core_0_L2C_prefetch_filled 6910211
Core_0_L2C_prefetch_useful 5265553
Core_0_L2C_prefetch_useless 1644577
Core_0_L2C_prefetch_late 118017
Core_0_L2C_average_miss_latency 140.14110

Core_0_L2C_rq_access 26534412
Core_0_L2C_rq_forward 0
Core_0_L2C_rq_merged 0
Core_0_L2C_rq_to_cache 26530938
Core_0_L2C_rq_full 0

Core_0_L2C_wq_access 10944287
Core_0_L2C_wq_forward 3570
Core_0_L2C_wq_merged 0
Core_0_L2C_wq_to_cache 10944287
Core_0_L2C_wq_full 0

Core_0_L2C_pq_access 51865776
Core_0_L2C_pq_forward 0
Core_0_L2C_pq_merged 144
Core_0_L2C_pq_to_cache 51865536
Core_0_L2C_pq_full 0

Core_0_L2C_acc_epochs 1256195
Core_0_L2C_acc_level_0 579251
Core_0_L2C_acc_level_1 125640
Core_0_L2C_acc_level_2 89266
Core_0_L2C_acc_level_3 63467
Core_0_L2C_acc_level_4 41647
Core_0_L2C_acc_level_5 63188
Core_0_L2C_acc_level_6 38165
Core_0_L2C_acc_level_7 33495
Core_0_L2C_acc_level_8 27331
Core_0_L2C_acc_level_9 194745

Core_0_LLC_total_access 63985160
Core_0_LLC_total_hit 35100441
Core_0_LLC_total_miss 28884719
Core_0_LLC_loads 13866604
Core_0_LLC_load_hit 10605764
Core_0_LLC_load_miss 3260840
Core_0_LLC_RFOs 3478835
Core_0_LLC_RFO_hit 757776
Core_0_LLC_RFO_miss 2721059
Core_0_LLC_prefetches 38535314
Core_0_LLC_prefetch_hit 17792338
Core_0_LLC_prefetch_miss 20742976
Core_0_LLC_writebacks 8104407
Core_0_LLC_writeback_hit 5944563
Core_0_LLC_writeback_miss 2159844
Core_0_LLC_prefetch_requested 0
Core_0_LLC_prefetch_dropped 0
Core_0_LLC_prefetch_issued 0
Core_0_LLC_prefetch_filled 24614197
Core_0_LLC_prefetch_useful 7951285
Core_0_LLC_prefetch_useless 16652540
Core_0_LLC_prefetch_late 176367
Core_0_LLC_average_miss_latency 271.40189

Core_0_LLC_rq_access 17345593
Core_0_LLC_rq_forward 0
Core_0_LLC_rq_merged 0
Core_0_LLC_rq_to_cache 17345439
Core_0_LLC_rq_full 0

Core_0_LLC_wq_access 8104407
Core_0_LLC_wq_forward 570
Core_0_LLC_wq_merged 0
Core_0_LLC_wq_to_cache 8104407
Core_0_LLC_wq_full 0

Core_0_LLC_pq_access 45267167
Core_0_LLC_pq_forward 0
Core_0_LLC_pq_merged 4
Core_0_LLC_pq_to_cache 45266740
Core_0_LLC_pq_full 0

Core_0_LLC_acc_epochs 1305653
Core_0_LLC_acc_level_0 682611
Core_0_LLC_acc_level_1 137363
Core_0_LLC_acc_level_2 104810
Core_0_LLC_acc_level_3 80552
Core_0_LLC_acc_level_4 57800
Core_0_LLC_acc_level_5 47740
Core_0_LLC_acc_level_6 29284
Core_0_LLC_acc_level_7 22010
Core_0_LLC_acc_level_8 16260
Core_0_LLC_acc_level_9 127223

Core_0_major_page_fault 0
Core_0_minor_page_fault 12989

[Bingo] PHT Access: 3112150
[Bingo] PHT Hit PC+Addr: 211505
[Bingo] PHT Hit PC+Offs: 2697303
[Bingo] PHT Miss: 203342
[Bingo] Prefetch PC+Addr: 0
[Bingo] Prefetch PC+Offs: 0
[Bingo] Useful PC+Addr: 0
[Bingo] Useful PC+Offs: 0
[Bingo] Useless PC+Addr: 0
[Bingo] Useless PC+Offs: 0
[Bingo] L1 Prefetch per Region: 0.00000
[Bingo] L2 Prefetch per Region: 3.84816
[Bingo] L3 Prefetch per Region: 17.39901
[Bingo] No Prefetch per Region: 10.75284
[Bingo] Number of Voters Mean: 11.01059
[Bingo] Number of Voters SD: 5.26152

Channel_0_RQ_row_buffer_hit 16284514
Channel_0_RQ_row_buffer_miss 10433219
Channel_0_WQ_row_buffer_hit 1168148
Channel_0_WQ_row_buffer_miss 4249457
Channel_0_WQ_full 1168
Channel_0_dbus_congested 10176400

avg_congested_cycle 4

DRAM_bw_pochs 5222610
DRAM_bw_level_0 3493075
DRAM_bw_level_1 895198
DRAM_bw_level_2 389416
DRAM_bw_level_3 444921
