*************************************************
   ChampSim Multicore Out-of-Order Simulator
   Last compiled: Dec 11 2024 17:59:53
*************************************************
parsing config file: /home/functionmain/桌面/Pythia/config/nopref.ini

trace_0 /home/functionmain/桌面/Pythia/traces/450.soplex-247B.champsimtrace.xz
adding L2C_PREFETCHER: NONE
Initialize SHIP state
warmup_instructions 100000000
simulation_instructions 500000000
champsim_seed 223
measure_ipc 0
measure_ipc_epoch 1000
measure_dram_bw 1
measure_dram_bw_epoch 256
measure_cache_acc 1
measure_cache_acc_epoch 1024
l1d_perfect 0
l2c_perfect 0
llc_perfect 0
l1d_semi_perfect 0
l2c_semi_perfect 0
llc_semi_perfect 0
semi_perfect_cache_page_buffer_size 64

num_cpus 1
cpu_freq 4000
dram_io_freq 150
page_size 4096
block_size 64
max_read_per_cycle 8
max_fill_per_cycle 1
dram_channels 1
log2_dram_channels 0
dram_ranks 1
dram_banks 8
dram_rows 65536
dram_columns 128
dram_row_size 8
dram_size 4096
dram_pages 1048576

fetch_width 6
decode_width 6
exec_width 4
lq_width 2
sq_width 2
retire_width 4
scheduler_size 128
branch_mispredict_penalty 20
rob_size 256
lq_size 72
sq_size 56
num_instr_destinations_sparc 4
num_instr_destinations 2
num_instr_sources 4

itlb_set 16
itlb_way 8
itlb_rq_size 16
itlb_wq_size 16
itlb_pq_size 0
itlb_mshr_size 8
itlb_latency 1

dtlb_set 16
dtlb_way 4
dtlb_rq_size 16
dtlb_wq_size 16
dtlb_pq_size 0
dtlb_mshr_size 8
dtlb_latency 1

stlb_set 128
stlb_way 12
stlb_rq_size 32
stlb_wq_size 32
stlb_pq_size 0
stlb_mshr_size 16
stlb_latency 8

l1i_size 32
l1i_set 64
l1i_way 8
l1i_rq_size 64
l1i_wq_size 64
l1i_pq_size 8
l1i_mshr_size 8
l1i_latency 1

l1d_size 32
l1d_set 64
l1d_way 8
l1d_rq_size 64
l1d_wq_size 64
l1d_pq_size 8
l1d_mshr_size 16
l1d_latency 4

l2c_size 256
l2c_set 512
l2c_way 8
l2c_rq_size 32
l2c_wq_size 32
l2c_pq_size 32
l2c_mshr_size 32
l2c_latency 10

llc_size 2048
llc_set 2048
llc_way 16
llc_rq_size 32
llc_wq_size 32
llc_pq_size 32
llc_mshr_size 64
llc_latency 20

dram_channel_width 8
dram_wq_size 64
dram_rq_size 64
tRP 15
tRCD 15
tCAS 12.5
dram_dbus_turn_around_time 30
dram_write_high_wm 56
dram_write_low_wm 48
min_dram_writes_per_switch 16
dram_mtps 150
dram_dbus_return_time 213


Heartbeat CPU  0 instructions:    1000002 cycles:     760972 heartbeat IPC: 1.31411 cumulative IPC: 1.31411 (Simulation time: 0 hr 0 min 1 sec) 
Heartbeat CPU  0 instructions:    2000001 cycles:    1404421 heartbeat IPC: 1.55412 cumulative IPC: 1.42408 (Simulation time: 0 hr 0 min 4 sec) 
Heartbeat CPU  0 instructions:    3000001 cycles:    2129782 heartbeat IPC: 1.37862 cumulative IPC: 1.40860 (Simulation time: 0 hr 0 min 6 sec) 
Heartbeat CPU  0 instructions:    4000000 cycles:    2670861 heartbeat IPC: 1.84816 cumulative IPC: 1.49764 (Simulation time: 0 hr 0 min 8 sec) 
Heartbeat CPU  0 instructions:    5000000 cycles:    3577310 heartbeat IPC: 1.10321 cumulative IPC: 1.39770 (Simulation time: 0 hr 0 min 10 sec) 
Heartbeat CPU  0 instructions:    6000001 cycles:    4470442 heartbeat IPC: 1.11966 cumulative IPC: 1.34215 (Simulation time: 0 hr 0 min 11 sec) 
Heartbeat CPU  0 instructions:    7000000 cycles:    5269653 heartbeat IPC: 1.25123 cumulative IPC: 1.32836 (Simulation time: 0 hr 0 min 13 sec) 
Heartbeat CPU  0 instructions:    8000000 cycles:    5962943 heartbeat IPC: 1.44240 cumulative IPC: 1.34162 (Simulation time: 0 hr 0 min 15 sec) 
Heartbeat CPU  0 instructions:    9000001 cycles:    6579458 heartbeat IPC: 1.62202 cumulative IPC: 1.36789 (Simulation time: 0 hr 0 min 16 sec) 
Heartbeat CPU  0 instructions:   10000000 cycles:    7126934 heartbeat IPC: 1.82656 cumulative IPC: 1.40313 (Simulation time: 0 hr 0 min 18 sec) 
Heartbeat CPU  0 instructions:   11000003 cycles:    7725743 heartbeat IPC: 1.66999 cumulative IPC: 1.42381 (Simulation time: 0 hr 0 min 19 sec) 
Heartbeat CPU  0 instructions:   12000000 cycles:    8409830 heartbeat IPC: 1.46180 cumulative IPC: 1.42690 (Simulation time: 0 hr 0 min 21 sec) 
Heartbeat CPU  0 instructions:   13000000 cycles:    9293960 heartbeat IPC: 1.13106 cumulative IPC: 1.39876 (Simulation time: 0 hr 0 min 22 sec) 
Heartbeat CPU  0 instructions:   14000002 cycles:   10044642 heartbeat IPC: 1.33212 cumulative IPC: 1.39378 (Simulation time: 0 hr 0 min 23 sec) 
Heartbeat CPU  0 instructions:   15000000 cycles:   10657324 heartbeat IPC: 1.63216 cumulative IPC: 1.40748 (Simulation time: 0 hr 0 min 24 sec) 
Heartbeat CPU  0 instructions:   16000000 cycles:   11189493 heartbeat IPC: 1.87910 cumulative IPC: 1.42991 (Simulation time: 0 hr 0 min 25 sec) 
Heartbeat CPU  0 instructions:   17000000 cycles:   12004173 heartbeat IPC: 1.22748 cumulative IPC: 1.41617 (Simulation time: 0 hr 0 min 27 sec) 
Heartbeat CPU  0 instructions:   18000001 cycles:   12627594 heartbeat IPC: 1.60405 cumulative IPC: 1.42545 (Simulation time: 0 hr 0 min 29 sec) 
Heartbeat CPU  0 instructions:   19000001 cycles:   13169092 heartbeat IPC: 1.84673 cumulative IPC: 1.44277 (Simulation time: 0 hr 0 min 30 sec) 
Heartbeat CPU  0 instructions:   20000000 cycles:   13771492 heartbeat IPC: 1.66002 cumulative IPC: 1.45228 (Simulation time: 0 hr 0 min 31 sec) 
Heartbeat CPU  0 instructions:   21000001 cycles:   14436839 heartbeat IPC: 1.50298 cumulative IPC: 1.45461 (Simulation time: 0 hr 0 min 33 sec) 
Heartbeat CPU  0 instructions:   22000003 cycles:   15318660 heartbeat IPC: 1.13402 cumulative IPC: 1.43616 (Simulation time: 0 hr 0 min 34 sec) 
Heartbeat CPU  0 instructions:   23000001 cycles:   16087676 heartbeat IPC: 1.30036 cumulative IPC: 1.42967 (Simulation time: 0 hr 0 min 35 sec) 
Heartbeat CPU  0 instructions:   24000000 cycles:   16695692 heartbeat IPC: 1.64469 cumulative IPC: 1.43750 (Simulation time: 0 hr 0 min 37 sec) 
Heartbeat CPU  0 instructions:   25000000 cycles:   17242610 heartbeat IPC: 1.82843 cumulative IPC: 1.44990 (Simulation time: 0 hr 0 min 38 sec) 
Heartbeat CPU  0 instructions:   26000001 cycles:   18043489 heartbeat IPC: 1.24863 cumulative IPC: 1.44096 (Simulation time: 0 hr 0 min 40 sec) 
Heartbeat CPU  0 instructions:   27000003 cycles:   18635302 heartbeat IPC: 1.68973 cumulative IPC: 1.44886 (Simulation time: 0 hr 0 min 42 sec) 
Heartbeat CPU  0 instructions:   28000000 cycles:   19194780 heartbeat IPC: 1.78737 cumulative IPC: 1.45873 (Simulation time: 0 hr 0 min 44 sec) 
Heartbeat CPU  0 instructions:   29000002 cycles:   19753042 heartbeat IPC: 1.79128 cumulative IPC: 1.46813 (Simulation time: 0 hr 0 min 46 sec) 
Heartbeat CPU  0 instructions:   30000001 cycles:   20349924 heartbeat IPC: 1.67537 cumulative IPC: 1.47421 (Simulation time: 0 hr 0 min 47 sec) 
Heartbeat CPU  0 instructions:   31000002 cycles:   21221941 heartbeat IPC: 1.14677 cumulative IPC: 1.46075 (Simulation time: 0 hr 0 min 48 sec) 
Heartbeat CPU  0 instructions:   32000000 cycles:   22045360 heartbeat IPC: 1.21445 cumulative IPC: 1.45155 (Simulation time: 0 hr 0 min 50 sec) 
Heartbeat CPU  0 instructions:   33000000 cycles:   22648513 heartbeat IPC: 1.65795 cumulative IPC: 1.45705 (Simulation time: 0 hr 0 min 51 sec) 
Heartbeat CPU  0 instructions:   34000000 cycles:   23275179 heartbeat IPC: 1.59575 cumulative IPC: 1.46078 (Simulation time: 0 hr 0 min 52 sec) 
Heartbeat CPU  0 instructions:   35000002 cycles:   24001334 heartbeat IPC: 1.37712 cumulative IPC: 1.45825 (Simulation time: 0 hr 0 min 54 sec) 
Heartbeat CPU  0 instructions:   36000000 cycles:   24625303 heartbeat IPC: 1.60264 cumulative IPC: 1.46191 (Simulation time: 0 hr 0 min 56 sec) 
Heartbeat CPU  0 instructions:   37000002 cycles:   25166883 heartbeat IPC: 1.84645 cumulative IPC: 1.47019 (Simulation time: 0 hr 0 min 57 sec) 
Heartbeat CPU  0 instructions:   38000002 cycles:   25734445 heartbeat IPC: 1.76192 cumulative IPC: 1.47662 (Simulation time: 0 hr 0 min 59 sec) 
Heartbeat CPU  0 instructions:   39000000 cycles:   26324265 heartbeat IPC: 1.69543 cumulative IPC: 1.48152 (Simulation time: 0 hr 1 min 1 sec) 
Heartbeat CPU  0 instructions:   40000000 cycles:   27104383 heartbeat IPC: 1.28186 cumulative IPC: 1.47578 (Simulation time: 0 hr 1 min 2 sec) 
Heartbeat CPU  0 instructions:   41000001 cycles:   27973622 heartbeat IPC: 1.15043 cumulative IPC: 1.46567 (Simulation time: 0 hr 1 min 3 sec) 
Heartbeat CPU  0 instructions:   42000001 cycles:   28626940 heartbeat IPC: 1.53065 cumulative IPC: 1.46715 (Simulation time: 0 hr 1 min 4 sec) 
Heartbeat CPU  0 instructions:   43000000 cycles:   29279303 heartbeat IPC: 1.53289 cumulative IPC: 1.46861 (Simulation time: 0 hr 1 min 6 sec) 
Heartbeat CPU  0 instructions:   44000000 cycles:   29905652 heartbeat IPC: 1.59655 cumulative IPC: 1.47129 (Simulation time: 0 hr 1 min 7 sec) 
Heartbeat CPU  0 instructions:   45000000 cycles:   30651997 heartbeat IPC: 1.33986 cumulative IPC: 1.46809 (Simulation time: 0 hr 1 min 9 sec) 
Heartbeat CPU  0 instructions:   46000001 cycles:   31195091 heartbeat IPC: 1.84130 cumulative IPC: 1.47459 (Simulation time: 0 hr 1 min 11 sec) 
Heartbeat CPU  0 instructions:   47000000 cycles:   31755872 heartbeat IPC: 1.78323 cumulative IPC: 1.48004 (Simulation time: 0 hr 1 min 12 sec) 
Heartbeat CPU  0 instructions:   48000000 cycles:   32349526 heartbeat IPC: 1.68448 cumulative IPC: 1.48379 (Simulation time: 0 hr 1 min 14 sec) 
Heartbeat CPU  0 instructions:   49000001 cycles:   33095503 heartbeat IPC: 1.34053 cumulative IPC: 1.48056 (Simulation time: 0 hr 1 min 15 sec) 
Heartbeat CPU  0 instructions:   50000001 cycles:   33966540 heartbeat IPC: 1.14806 cumulative IPC: 1.47204 (Simulation time: 0 hr 1 min 16 sec) 
Heartbeat CPU  0 instructions:   51000003 cycles:   34662508 heartbeat IPC: 1.43685 cumulative IPC: 1.47133 (Simulation time: 0 hr 1 min 17 sec) 
Heartbeat CPU  0 instructions:   52000000 cycles:   35281276 heartbeat IPC: 1.61611 cumulative IPC: 1.47387 (Simulation time: 0 hr 1 min 18 sec) 
Heartbeat CPU  0 instructions:   53000000 cycles:   35861648 heartbeat IPC: 1.72303 cumulative IPC: 1.47790 (Simulation time: 0 hr 1 min 20 sec) 
Heartbeat CPU  0 instructions:   54000002 cycles:   36638829 heartbeat IPC: 1.28670 cumulative IPC: 1.47385 (Simulation time: 0 hr 1 min 22 sec) 
Heartbeat CPU  0 instructions:   55000001 cycles:   37223118 heartbeat IPC: 1.71148 cumulative IPC: 1.47758 (Simulation time: 0 hr 1 min 23 sec) 
Heartbeat CPU  0 instructions:   56000000 cycles:   37777567 heartbeat IPC: 1.80359 cumulative IPC: 1.48236 (Simulation time: 0 hr 1 min 25 sec) 
Heartbeat CPU  0 instructions:   57000002 cycles:   38372879 heartbeat IPC: 1.67979 cumulative IPC: 1.48542 (Simulation time: 0 hr 1 min 26 sec) 
Heartbeat CPU  0 instructions:   58000001 cycles:   39112384 heartbeat IPC: 1.35225 cumulative IPC: 1.48291 (Simulation time: 0 hr 1 min 27 sec) 
Heartbeat CPU  0 instructions:   59000001 cycles:   39985590 heartbeat IPC: 1.14521 cumulative IPC: 1.47553 (Simulation time: 0 hr 1 min 29 sec) 
Heartbeat CPU  0 instructions:   60000000 cycles:   40707042 heartbeat IPC: 1.38609 cumulative IPC: 1.47395 (Simulation time: 0 hr 1 min 30 sec) 
Heartbeat CPU  0 instructions:   61000003 cycles:   41336759 heartbeat IPC: 1.58802 cumulative IPC: 1.47568 (Simulation time: 0 hr 1 min 31 sec) 
Heartbeat CPU  0 instructions:   62000001 cycles:   41909333 heartbeat IPC: 1.74650 cumulative IPC: 1.47938 (Simulation time: 0 hr 1 min 32 sec) 
Heartbeat CPU  0 instructions:   63000000 cycles:   42708681 heartbeat IPC: 1.25102 cumulative IPC: 1.47511 (Simulation time: 0 hr 1 min 34 sec) 
Heartbeat CPU  0 instructions:   64000000 cycles:   43311408 heartbeat IPC: 1.65913 cumulative IPC: 1.47767 (Simulation time: 0 hr 1 min 36 sec) 
Heartbeat CPU  0 instructions:   65000003 cycles:   43863765 heartbeat IPC: 1.81043 cumulative IPC: 1.48186 (Simulation time: 0 hr 1 min 38 sec) 
Heartbeat CPU  0 instructions:   66000001 cycles:   44457752 heartbeat IPC: 1.68354 cumulative IPC: 1.48456 (Simulation time: 0 hr 1 min 39 sec) 
Heartbeat CPU  0 instructions:   67000000 cycles:   45153233 heartbeat IPC: 1.43785 cumulative IPC: 1.48384 (Simulation time: 0 hr 1 min 40 sec) 
Heartbeat CPU  0 instructions:   68000000 cycles:   46032071 heartbeat IPC: 1.13787 cumulative IPC: 1.47723 (Simulation time: 0 hr 1 min 42 sec) 
Heartbeat CPU  0 instructions:   69000001 cycles:   46786005 heartbeat IPC: 1.32638 cumulative IPC: 1.47480 (Simulation time: 0 hr 1 min 43 sec) 
Heartbeat CPU  0 instructions:   70000000 cycles:   47411367 heartbeat IPC: 1.59907 cumulative IPC: 1.47644 (Simulation time: 0 hr 1 min 44 sec) 
Heartbeat CPU  0 instructions:   71000002 cycles:   47948288 heartbeat IPC: 1.86248 cumulative IPC: 1.48076 (Simulation time: 0 hr 1 min 45 sec) 
Heartbeat CPU  0 instructions:   72000000 cycles:   48758483 heartbeat IPC: 1.23427 cumulative IPC: 1.47667 (Simulation time: 0 hr 1 min 47 sec) 
Heartbeat CPU  0 instructions:   73000001 cycles:   49373738 heartbeat IPC: 1.62534 cumulative IPC: 1.47852 (Simulation time: 0 hr 1 min 49 sec) 
Heartbeat CPU  0 instructions:   74000002 cycles:   49920398 heartbeat IPC: 1.82929 cumulative IPC: 1.48236 (Simulation time: 0 hr 1 min 50 sec) 
Heartbeat CPU  0 instructions:   75000003 cycles:   50522782 heartbeat IPC: 1.66007 cumulative IPC: 1.48448 (Simulation time: 0 hr 1 min 51 sec) 
Heartbeat CPU  0 instructions:   76000000 cycles:   51183435 heartbeat IPC: 1.51365 cumulative IPC: 1.48486 (Simulation time: 0 hr 1 min 53 sec) 
Heartbeat CPU  0 instructions:   77000001 cycles:   52059443 heartbeat IPC: 1.14154 cumulative IPC: 1.47908 (Simulation time: 0 hr 1 min 54 sec) 
Heartbeat CPU  0 instructions:   78000001 cycles:   52835549 heartbeat IPC: 1.28848 cumulative IPC: 1.47628 (Simulation time: 0 hr 1 min 55 sec) 
Heartbeat CPU  0 instructions:   79000003 cycles:   53457999 heartbeat IPC: 1.60656 cumulative IPC: 1.47780 (Simulation time: 0 hr 1 min 56 sec) 
Heartbeat CPU  0 instructions:   80000000 cycles:   54030044 heartbeat IPC: 1.74811 cumulative IPC: 1.48066 (Simulation time: 0 hr 1 min 58 sec) 
Heartbeat CPU  0 instructions:   81000001 cycles:   54819123 heartbeat IPC: 1.26730 cumulative IPC: 1.47759 (Simulation time: 0 hr 1 min 59 sec) 
Heartbeat CPU  0 instructions:   82000002 cycles:   55450645 heartbeat IPC: 1.58348 cumulative IPC: 1.47879 (Simulation time: 0 hr 2 min 1 sec) 
Heartbeat CPU  0 instructions:   83000003 cycles:   56014673 heartbeat IPC: 1.77296 cumulative IPC: 1.48175 (Simulation time: 0 hr 2 min 2 sec) 
Heartbeat CPU  0 instructions:   84000000 cycles:   56571058 heartbeat IPC: 1.79731 cumulative IPC: 1.48486 (Simulation time: 0 hr 2 min 4 sec) 
Heartbeat CPU  0 instructions:   85000001 cycles:   57167489 heartbeat IPC: 1.67664 cumulative IPC: 1.48686 (Simulation time: 0 hr 2 min 5 sec) 
Heartbeat CPU  0 instructions:   86000000 cycles:   58043073 heartbeat IPC: 1.14209 cumulative IPC: 1.48166 (Simulation time: 0 hr 2 min 6 sec) 
Heartbeat CPU  0 instructions:   87000000 cycles:   58872533 heartbeat IPC: 1.20560 cumulative IPC: 1.47777 (Simulation time: 0 hr 2 min 8 sec) 
Heartbeat CPU  0 instructions:   88000000 cycles:   59495548 heartbeat IPC: 1.60510 cumulative IPC: 1.47910 (Simulation time: 0 hr 2 min 9 sec) 
Heartbeat CPU  0 instructions:   89000003 cycles:   60148413 heartbeat IPC: 1.53171 cumulative IPC: 1.47967 (Simulation time: 0 hr 2 min 10 sec) 
Heartbeat CPU  0 instructions:   90000003 cycles:   60844453 heartbeat IPC: 1.43670 cumulative IPC: 1.47918 (Simulation time: 0 hr 2 min 11 sec) 
Heartbeat CPU  0 instructions:   91000001 cycles:   61538624 heartbeat IPC: 1.44056 cumulative IPC: 1.47875 (Simulation time: 0 hr 2 min 13 sec) 
Heartbeat CPU  0 instructions:   92000000 cycles:   62114396 heartbeat IPC: 1.73680 cumulative IPC: 1.48114 (Simulation time: 0 hr 2 min 15 sec) 
Heartbeat CPU  0 instructions:   93000000 cycles:   62661194 heartbeat IPC: 1.82883 cumulative IPC: 1.48417 (Simulation time: 0 hr 2 min 16 sec) 
Heartbeat CPU  0 instructions:   94000002 cycles:   63259087 heartbeat IPC: 1.67254 cumulative IPC: 1.48595 (Simulation time: 0 hr 2 min 18 sec) 
Heartbeat CPU  0 instructions:   95000003 cycles:   64099779 heartbeat IPC: 1.18950 cumulative IPC: 1.48206 (Simulation time: 0 hr 2 min 19 sec) 
Heartbeat CPU  0 instructions:   96000000 cycles:   64950258 heartbeat IPC: 1.17580 cumulative IPC: 1.47805 (Simulation time: 0 hr 2 min 20 sec) 
Heartbeat CPU  0 instructions:   97000002 cycles:   65587870 heartbeat IPC: 1.56836 cumulative IPC: 1.47893 (Simulation time: 0 hr 2 min 21 sec) 
Heartbeat CPU  0 instructions:   98000003 cycles:   66245807 heartbeat IPC: 1.51990 cumulative IPC: 1.47934 (Simulation time: 0 hr 2 min 22 sec) 
Heartbeat CPU  0 instructions:   99000002 cycles:   66899997 heartbeat IPC: 1.52861 cumulative IPC: 1.47982 (Simulation time: 0 hr 2 min 24 sec) 
Heartbeat CPU  0 instructions:  100000000 cycles:   67485474 heartbeat IPC: 1.70801 cumulative IPC: 1.48180 (Simulation time: 0 hr 2 min 25 sec) 

Warmup complete CPU  0 instructions:  100000002 cycles:   67485476 (Simulation time: 0 hr 2 min 25 sec) 

Heartbeat CPU  0 instructions:  101000000 cycles:   83877435 heartbeat IPC: 0.06101 cumulative IPC: 0.06101 (Simulation time: 0 hr 2 min 33 sec) 
Heartbeat CPU  0 instructions:  102000001 cycles:   96099686 heartbeat IPC: 0.08182 cumulative IPC: 0.06990 (Simulation time: 0 hr 2 min 41 sec) 
Heartbeat CPU  0 instructions:  103000001 cycles:  111034277 heartbeat IPC: 0.06696 cumulative IPC: 0.06889 (Simulation time: 0 hr 2 min 50 sec) 
Heartbeat CPU  0 instructions:  104000000 cycles:  120082906 heartbeat IPC: 0.11051 cumulative IPC: 0.07605 (Simulation time: 0 hr 2 min 55 sec) 
Heartbeat CPU  0 instructions:  105000003 cycles:  127825179 heartbeat IPC: 0.12916 cumulative IPC: 0.08286 (Simulation time: 0 hr 3 min 0 sec) 
Heartbeat CPU  0 instructions:  106000001 cycles:  134660475 heartbeat IPC: 0.14630 cumulative IPC: 0.08932 (Simulation time: 0 hr 3 min 5 sec) 
Heartbeat CPU  0 instructions:  107000003 cycles:  140725922 heartbeat IPC: 0.16487 cumulative IPC: 0.09558 (Simulation time: 0 hr 3 min 9 sec) 
Heartbeat CPU  0 instructions:  108000000 cycles:  144948718 heartbeat IPC: 0.23681 cumulative IPC: 0.10327 (Simulation time: 0 hr 3 min 12 sec) 
Heartbeat CPU  0 instructions:  109000000 cycles:  148957363 heartbeat IPC: 0.24946 cumulative IPC: 0.11047 (Simulation time: 0 hr 3 min 15 sec) 
Heartbeat CPU  0 instructions:  110000001 cycles:  152384371 heartbeat IPC: 0.29180 cumulative IPC: 0.11779 (Simulation time: 0 hr 3 min 17 sec) 
Heartbeat CPU  0 instructions:  111000003 cycles:  155871787 heartbeat IPC: 0.28675 cumulative IPC: 0.12445 (Simulation time: 0 hr 3 min 20 sec) 
Heartbeat CPU  0 instructions:  112000000 cycles:  159548340 heartbeat IPC: 0.27199 cumulative IPC: 0.13035 (Simulation time: 0 hr 3 min 24 sec) 
Heartbeat CPU  0 instructions:  113000002 cycles:  164537289 heartbeat IPC: 0.20044 cumulative IPC: 0.13395 (Simulation time: 0 hr 3 min 28 sec) 
Heartbeat CPU  0 instructions:  114000001 cycles:  170406137 heartbeat IPC: 0.17039 cumulative IPC: 0.13603 (Simulation time: 0 hr 3 min 33 sec) 
Heartbeat CPU  0 instructions:  115000000 cycles:  178103867 heartbeat IPC: 0.12991 cumulative IPC: 0.13560 (Simulation time: 0 hr 3 min 38 sec) 
Heartbeat CPU  0 instructions:  116000000 cycles:  185661203 heartbeat IPC: 0.13232 cumulative IPC: 0.13539 (Simulation time: 0 hr 3 min 42 sec) 
Heartbeat CPU  0 instructions:  117000000 cycles:  194866735 heartbeat IPC: 0.10863 cumulative IPC: 0.13346 (Simulation time: 0 hr 3 min 48 sec) 
Heartbeat CPU  0 instructions:  118000002 cycles:  200785686 heartbeat IPC: 0.16895 cumulative IPC: 0.13503 (Simulation time: 0 hr 3 min 52 sec) 
Heartbeat CPU  0 instructions:  119000000 cycles:  213010579 heartbeat IPC: 0.08180 cumulative IPC: 0.13056 (Simulation time: 0 hr 4 min 0 sec) 
Heartbeat CPU  0 instructions:  120000000 cycles:  218106247 heartbeat IPC: 0.19625 cumulative IPC: 0.13278 (Simulation time: 0 hr 4 min 4 sec) 
Heartbeat CPU  0 instructions:  121000001 cycles:  235264294 heartbeat IPC: 0.05828 cumulative IPC: 0.12516 (Simulation time: 0 hr 4 min 14 sec) 
Heartbeat CPU  0 instructions:  122000001 cycles:  244257784 heartbeat IPC: 0.11119 cumulative IPC: 0.12445 (Simulation time: 0 hr 4 min 19 sec) 
Heartbeat CPU  0 instructions:  123000000 cycles:  246512097 heartbeat IPC: 0.44359 cumulative IPC: 0.12847 (Simulation time: 0 hr 4 min 21 sec) 
Heartbeat CPU  0 instructions:  124000000 cycles:  248321998 heartbeat IPC: 0.55252 cumulative IPC: 0.13272 (Simulation time: 0 hr 4 min 22 sec) 
Heartbeat CPU  0 instructions:  125000000 cycles:  257857562 heartbeat IPC: 0.10487 cumulative IPC: 0.13132 (Simulation time: 0 hr 4 min 27 sec) 
Heartbeat CPU  0 instructions:  126000002 cycles:  268356479 heartbeat IPC: 0.09525 cumulative IPC: 0.12944 (Simulation time: 0 hr 4 min 33 sec) 
Heartbeat CPU  0 instructions:  127000002 cycles:  283039948 heartbeat IPC: 0.06810 cumulative IPC: 0.12526 (Simulation time: 0 hr 4 min 41 sec) 
Heartbeat CPU  0 instructions:  128000000 cycles:  289391737 heartbeat IPC: 0.15744 cumulative IPC: 0.12618 (Simulation time: 0 hr 4 min 45 sec) 
Heartbeat CPU  0 instructions:  129000000 cycles:  296951536 heartbeat IPC: 0.13228 cumulative IPC: 0.12638 (Simulation time: 0 hr 4 min 50 sec) 
Heartbeat CPU  0 instructions:  130000000 cycles:  315144116 heartbeat IPC: 0.05497 cumulative IPC: 0.12113 (Simulation time: 0 hr 5 min 0 sec) 
Heartbeat CPU  0 instructions:  131000000 cycles:  317807099 heartbeat IPC: 0.37552 cumulative IPC: 0.12384 (Simulation time: 0 hr 5 min 2 sec) 
Heartbeat CPU  0 instructions:  132000000 cycles:  319918949 heartbeat IPC: 0.47352 cumulative IPC: 0.12677 (Simulation time: 0 hr 5 min 3 sec) 
Heartbeat CPU  0 instructions:  133000000 cycles:  324320365 heartbeat IPC: 0.22720 cumulative IPC: 0.12849 (Simulation time: 0 hr 5 min 6 sec) 
Heartbeat CPU  0 instructions:  134000000 cycles:  335482353 heartbeat IPC: 0.08959 cumulative IPC: 0.12687 (Simulation time: 0 hr 5 min 12 sec) 
Heartbeat CPU  0 instructions:  135000002 cycles:  347029739 heartbeat IPC: 0.08660 cumulative IPC: 0.12520 (Simulation time: 0 hr 5 min 18 sec) 
Heartbeat CPU  0 instructions:  136000000 cycles:  358999309 heartbeat IPC: 0.08355 cumulative IPC: 0.12349 (Simulation time: 0 hr 5 min 26 sec) 
Heartbeat CPU  0 instructions:  137000000 cycles:  364577876 heartbeat IPC: 0.17926 cumulative IPC: 0.12454 (Simulation time: 0 hr 5 min 30 sec) 
Heartbeat CPU  0 instructions:  138000002 cycles:  375700596 heartbeat IPC: 0.08991 cumulative IPC: 0.12329 (Simulation time: 0 hr 5 min 37 sec) 
Heartbeat CPU  0 instructions:  139000000 cycles:  390069384 heartbeat IPC: 0.06960 cumulative IPC: 0.12090 (Simulation time: 0 hr 5 min 44 sec) 
Heartbeat CPU  0 instructions:  140000000 cycles:  392392377 heartbeat IPC: 0.43048 cumulative IPC: 0.12311 (Simulation time: 0 hr 5 min 46 sec) 
Heartbeat CPU  0 instructions:  141000000 cycles:  394385006 heartbeat IPC: 0.50185 cumulative IPC: 0.12542 (Simulation time: 0 hr 5 min 48 sec) 
Heartbeat CPU  0 instructions:  142000000 cycles:  400564420 heartbeat IPC: 0.16183 cumulative IPC: 0.12610 (Simulation time: 0 hr 5 min 51 sec) 
Heartbeat CPU  0 instructions:  143000003 cycles:  410366787 heartbeat IPC: 0.10202 cumulative IPC: 0.12541 (Simulation time: 0 hr 5 min 57 sec) 
Heartbeat CPU  0 instructions:  144000000 cycles:  422067123 heartbeat IPC: 0.08547 cumulative IPC: 0.12409 (Simulation time: 0 hr 6 min 3 sec) 
Heartbeat CPU  0 instructions:  145000002 cycles:  433850947 heartbeat IPC: 0.08486 cumulative IPC: 0.12283 (Simulation time: 0 hr 6 min 10 sec) 
Heartbeat CPU  0 instructions:  146000003 cycles:  438544574 heartbeat IPC: 0.21306 cumulative IPC: 0.12397 (Simulation time: 0 hr 6 min 13 sec) 
Heartbeat CPU  0 instructions:  147000002 cycles:  453413818 heartbeat IPC: 0.06725 cumulative IPC: 0.12178 (Simulation time: 0 hr 6 min 22 sec) 
Heartbeat CPU  0 instructions:  148000000 cycles:  464061397 heartbeat IPC: 0.09392 cumulative IPC: 0.12104 (Simulation time: 0 hr 6 min 28 sec) 
Heartbeat CPU  0 instructions:  149000000 cycles:  466379333 heartbeat IPC: 0.43142 cumulative IPC: 0.12284 (Simulation time: 0 hr 6 min 29 sec) 
Heartbeat CPU  0 instructions:  150000002 cycles:  468259582 heartbeat IPC: 0.53185 cumulative IPC: 0.12476 (Simulation time: 0 hr 6 min 31 sec) 
Heartbeat CPU  0 instructions:  151000000 cycles:  476174881 heartbeat IPC: 0.12634 cumulative IPC: 0.12479 (Simulation time: 0 hr 6 min 35 sec) 
Heartbeat CPU  0 instructions:  152000000 cycles:  485852140 heartbeat IPC: 0.10334 cumulative IPC: 0.12429 (Simulation time: 0 hr 6 min 41 sec) 
Heartbeat CPU  0 instructions:  153000000 cycles:  496615817 heartbeat IPC: 0.09291 cumulative IPC: 0.12351 (Simulation time: 0 hr 6 min 47 sec) 
Heartbeat CPU  0 instructions:  154000002 cycles:  508552466 heartbeat IPC: 0.08378 cumulative IPC: 0.12243 (Simulation time: 0 hr 6 min 53 sec) 
Heartbeat CPU  0 instructions:  155000002 cycles:  512186009 heartbeat IPC: 0.27521 cumulative IPC: 0.12368 (Simulation time: 0 hr 6 min 57 sec) 
Heartbeat CPU  0 instructions:  156000000 cycles:  530019173 heartbeat IPC: 0.05608 cumulative IPC: 0.12107 (Simulation time: 0 hr 7 min 6 sec) 
Heartbeat CPU  0 instructions:  157000000 cycles:  537875860 heartbeat IPC: 0.12728 cumulative IPC: 0.12118 (Simulation time: 0 hr 7 min 11 sec) 
Heartbeat CPU  0 instructions:  158000003 cycles:  540154054 heartbeat IPC: 0.43895 cumulative IPC: 0.12271 (Simulation time: 0 hr 7 min 12 sec) 
Heartbeat CPU  0 instructions:  159000000 cycles:  542125103 heartbeat IPC: 0.50734 cumulative IPC: 0.12430 (Simulation time: 0 hr 7 min 14 sec) 
Heartbeat CPU  0 instructions:  160000000 cycles:  551882479 heartbeat IPC: 0.10249 cumulative IPC: 0.12387 (Simulation time: 0 hr 7 min 18 sec) 
Heartbeat CPU  0 instructions:  161000003 cycles:  563398426 heartbeat IPC: 0.08684 cumulative IPC: 0.12301 (Simulation time: 0 hr 7 min 25 sec) 
Heartbeat CPU  0 instructions:  162000001 cycles:  576677734 heartbeat IPC: 0.07530 cumulative IPC: 0.12176 (Simulation time: 0 hr 7 min 33 sec) 
Heartbeat CPU  0 instructions:  163000000 cycles:  583217478 heartbeat IPC: 0.15291 cumulative IPC: 0.12216 (Simulation time: 0 hr 7 min 37 sec) 
Heartbeat CPU  0 instructions:  164000000 cycles:  590460634 heartbeat IPC: 0.13806 cumulative IPC: 0.12238 (Simulation time: 0 hr 7 min 43 sec) 
Heartbeat CPU  0 instructions:  165000001 cycles:  608564616 heartbeat IPC: 0.05524 cumulative IPC: 0.12013 (Simulation time: 0 hr 7 min 52 sec) 
Heartbeat CPU  0 instructions:  166000000 cycles:  611393264 heartbeat IPC: 0.35353 cumulative IPC: 0.12134 (Simulation time: 0 hr 7 min 54 sec) 
Heartbeat CPU  0 instructions:  167000001 cycles:  613526619 heartbeat IPC: 0.46875 cumulative IPC: 0.12270 (Simulation time: 0 hr 7 min 56 sec) 
Heartbeat CPU  0 instructions:  168000000 cycles:  617816876 heartbeat IPC: 0.23309 cumulative IPC: 0.12356 (Simulation time: 0 hr 7 min 58 sec) 
Heartbeat CPU  0 instructions:  169000001 cycles:  628825324 heartbeat IPC: 0.09084 cumulative IPC: 0.12292 (Simulation time: 0 hr 8 min 4 sec) 
Heartbeat CPU  0 instructions:  170000002 cycles:  640361746 heartbeat IPC: 0.08668 cumulative IPC: 0.12219 (Simulation time: 0 hr 8 min 11 sec) 
Heartbeat CPU  0 instructions:  171000000 cycles:  651854746 heartbeat IPC: 0.08701 cumulative IPC: 0.12150 (Simulation time: 0 hr 8 min 18 sec) 
Heartbeat CPU  0 instructions:  172000000 cycles:  657415779 heartbeat IPC: 0.17982 cumulative IPC: 0.12205 (Simulation time: 0 hr 8 min 22 sec) 
Heartbeat CPU  0 instructions:  173000000 cycles:  668116274 heartbeat IPC: 0.09345 cumulative IPC: 0.12154 (Simulation time: 0 hr 8 min 28 sec) 
Heartbeat CPU  0 instructions:  174000000 cycles:  682722937 heartbeat IPC: 0.06846 cumulative IPC: 0.12028 (Simulation time: 0 hr 8 min 36 sec) 
Heartbeat CPU  0 instructions:  175000000 cycles:  685039538 heartbeat IPC: 0.43167 cumulative IPC: 0.12145 (Simulation time: 0 hr 8 min 37 sec) 
Heartbeat CPU  0 instructions:  176000000 cycles:  687057772 heartbeat IPC: 0.49548 cumulative IPC: 0.12267 (Simulation time: 0 hr 8 min 39 sec) 
Heartbeat CPU  0 instructions:  177000002 cycles:  693070698 heartbeat IPC: 0.16631 cumulative IPC: 0.12308 (Simulation time: 0 hr 8 min 42 sec) 
Heartbeat CPU  0 instructions:  178000001 cycles:  702950307 heartbeat IPC: 0.10122 cumulative IPC: 0.12274 (Simulation time: 0 hr 8 min 47 sec) 
Heartbeat CPU  0 instructions:  179000000 cycles:  714738956 heartbeat IPC: 0.08483 cumulative IPC: 0.12205 (Simulation time: 0 hr 8 min 54 sec) 
Heartbeat CPU  0 instructions:  180000000 cycles:  726032771 heartbeat IPC: 0.08854 cumulative IPC: 0.12148 (Simulation time: 0 hr 9 min 1 sec) 
Heartbeat CPU  0 instructions:  181000003 cycles:  730007633 heartbeat IPC: 0.25158 cumulative IPC: 0.12226 (Simulation time: 0 hr 9 min 4 sec) 
Heartbeat CPU  0 instructions:  182000000 cycles:  747096582 heartbeat IPC: 0.05852 cumulative IPC: 0.12066 (Simulation time: 0 hr 9 min 14 sec) 
Heartbeat CPU  0 instructions:  183000000 cycles:  755562385 heartbeat IPC: 0.11812 cumulative IPC: 0.12063 (Simulation time: 0 hr 9 min 18 sec) 
Heartbeat CPU  0 instructions:  184000000 cycles:  757838356 heartbeat IPC: 0.43937 cumulative IPC: 0.12168 (Simulation time: 0 hr 9 min 20 sec) 
Heartbeat CPU  0 instructions:  185000002 cycles:  759671194 heartbeat IPC: 0.54560 cumulative IPC: 0.12280 (Simulation time: 0 hr 9 min 21 sec) 
Heartbeat CPU  0 instructions:  186000001 cycles:  769149055 heartbeat IPC: 0.10551 cumulative IPC: 0.12257 (Simulation time: 0 hr 9 min 25 sec) 
Heartbeat CPU  0 instructions:  187000003 cycles:  780484959 heartbeat IPC: 0.08822 cumulative IPC: 0.12202 (Simulation time: 0 hr 9 min 32 sec) 
Heartbeat CPU  0 instructions:  188000000 cycles:  790550657 heartbeat IPC: 0.09935 cumulative IPC: 0.12170 (Simulation time: 0 hr 9 min 38 sec) 
Heartbeat CPU  0 instructions:  189000001 cycles:  800344224 heartbeat IPC: 0.10211 cumulative IPC: 0.12144 (Simulation time: 0 hr 9 min 44 sec) 
Heartbeat CPU  0 instructions:  190000001 cycles:  805454986 heartbeat IPC: 0.19567 cumulative IPC: 0.12196 (Simulation time: 0 hr 9 min 48 sec) 
Heartbeat CPU  0 instructions:  191000002 cycles:  823937645 heartbeat IPC: 0.05410 cumulative IPC: 0.12030 (Simulation time: 0 hr 9 min 58 sec) 
Heartbeat CPU  0 instructions:  192000000 cycles:  829114722 heartbeat IPC: 0.19316 cumulative IPC: 0.12079 (Simulation time: 0 hr 10 min 0 sec) 
Heartbeat CPU  0 instructions:  193000003 cycles:  831336937 heartbeat IPC: 0.45000 cumulative IPC: 0.12175 (Simulation time: 0 hr 10 min 2 sec) 
Heartbeat CPU  0 instructions:  194000001 cycles:  834333268 heartbeat IPC: 0.33374 cumulative IPC: 0.12258 (Simulation time: 0 hr 10 min 4 sec) 
Heartbeat CPU  0 instructions:  195000000 cycles:  845815025 heartbeat IPC: 0.08709 cumulative IPC: 0.12206 (Simulation time: 0 hr 10 min 10 sec) 
Heartbeat CPU  0 instructions:  196000000 cycles:  856936214 heartbeat IPC: 0.08992 cumulative IPC: 0.12160 (Simulation time: 0 hr 10 min 16 sec) 
Heartbeat CPU  0 instructions:  197000000 cycles:  869027401 heartbeat IPC: 0.08270 cumulative IPC: 0.12102 (Simulation time: 0 hr 10 min 23 sec) 
Heartbeat CPU  0 instructions:  198000000 cycles:  874712991 heartbeat IPC: 0.17588 cumulative IPC: 0.12140 (Simulation time: 0 hr 10 min 27 sec) 
Heartbeat CPU  0 instructions:  199000000 cycles:  882917688 heartbeat IPC: 0.12188 cumulative IPC: 0.12141 (Simulation time: 0 hr 10 min 33 sec) 
Heartbeat CPU  0 instructions:  200000000 cycles:  900328105 heartbeat IPC: 0.05744 cumulative IPC: 0.12007 (Simulation time: 0 hr 10 min 42 sec) 
Heartbeat CPU  0 instructions:  201000000 cycles:  902648790 heartbeat IPC: 0.43091 cumulative IPC: 0.12093 (Simulation time: 0 hr 10 min 44 sec) 
Heartbeat CPU  0 instructions:  202000002 cycles:  904747036 heartbeat IPC: 0.47659 cumulative IPC: 0.12183 (Simulation time: 0 hr 10 min 45 sec) 
Heartbeat CPU  0 instructions:  203000002 cycles:  909491500 heartbeat IPC: 0.21077 cumulative IPC: 0.12233 (Simulation time: 0 hr 10 min 48 sec) 
Heartbeat CPU  0 instructions:  204000000 cycles:  920372442 heartbeat IPC: 0.09190 cumulative IPC: 0.12194 (Simulation time: 0 hr 10 min 54 sec) 
Heartbeat CPU  0 instructions:  205000000 cycles:  931817063 heartbeat IPC: 0.08738 cumulative IPC: 0.12148 (Simulation time: 0 hr 11 min 0 sec) 
Heartbeat CPU  0 instructions:  206000000 cycles:  936928707 heartbeat IPC: 0.19563 cumulative IPC: 0.12192 (Simulation time: 0 hr 11 min 5 sec) 
Heartbeat CPU  0 instructions:  207000002 cycles:  956154194 heartbeat IPC: 0.05201 cumulative IPC: 0.12040 (Simulation time: 0 hr 11 min 13 sec) 
Heartbeat CPU  0 instructions:  208000000 cycles:  967252546 heartbeat IPC: 0.09010 cumulative IPC: 0.12003 (Simulation time: 0 hr 11 min 22 sec) 
Heartbeat CPU  0 instructions:  209000001 cycles:  981052082 heartbeat IPC: 0.07247 cumulative IPC: 0.11931 (Simulation time: 0 hr 11 min 30 sec) 
Heartbeat CPU  0 instructions:  210000000 cycles:  990386276 heartbeat IPC: 0.10713 cumulative IPC: 0.11919 (Simulation time: 0 hr 11 min 35 sec) 
Heartbeat CPU  0 instructions:  211000001 cycles:  998105978 heartbeat IPC: 0.12954 cumulative IPC: 0.11928 (Simulation time: 0 hr 11 min 40 sec) 
Heartbeat CPU  0 instructions:  212000000 cycles: 1004458969 heartbeat IPC: 0.15741 cumulative IPC: 0.11953 (Simulation time: 0 hr 11 min 45 sec) 
Heartbeat CPU  0 instructions:  213000002 cycles: 1009998626 heartbeat IPC: 0.18052 cumulative IPC: 0.11989 (Simulation time: 0 hr 11 min 48 sec) 
Heartbeat CPU  0 instructions:  214000001 cycles: 1014359912 heartbeat IPC: 0.22929 cumulative IPC: 0.12040 (Simulation time: 0 hr 11 min 51 sec) 
Heartbeat CPU  0 instructions:  215000002 cycles: 1018170751 heartbeat IPC: 0.26241 cumulative IPC: 0.12097 (Simulation time: 0 hr 11 min 54 sec) 
Heartbeat CPU  0 instructions:  216000000 cycles: 1021462865 heartbeat IPC: 0.30376 cumulative IPC: 0.12160 (Simulation time: 0 hr 11 min 57 sec) 
Heartbeat CPU  0 instructions:  217000000 cycles: 1024833176 heartbeat IPC: 0.29671 cumulative IPC: 0.12221 (Simulation time: 0 hr 12 min 0 sec) 
Heartbeat CPU  0 instructions:  218000002 cycles: 1028416215 heartbeat IPC: 0.27909 cumulative IPC: 0.12280 (Simulation time: 0 hr 12 min 4 sec) 
Heartbeat CPU  0 instructions:  219000002 cycles: 1034068793 heartbeat IPC: 0.17691 cumulative IPC: 0.12311 (Simulation time: 0 hr 12 min 9 sec) 
Heartbeat CPU  0 instructions:  220000000 cycles: 1040136147 heartbeat IPC: 0.16482 cumulative IPC: 0.12337 (Simulation time: 0 hr 12 min 13 sec) 
Heartbeat CPU  0 instructions:  221000000 cycles: 1047888405 heartbeat IPC: 0.12899 cumulative IPC: 0.12342 (Simulation time: 0 hr 12 min 18 sec) 
Heartbeat CPU  0 instructions:  222000001 cycles: 1057048850 heartbeat IPC: 0.10917 cumulative IPC: 0.12329 (Simulation time: 0 hr 12 min 24 sec) 
Heartbeat CPU  0 instructions:  223000001 cycles: 1064185634 heartbeat IPC: 0.14012 cumulative IPC: 0.12341 (Simulation time: 0 hr 12 min 28 sec) 
Heartbeat CPU  0 instructions:  224000000 cycles: 1071417382 heartbeat IPC: 0.13828 cumulative IPC: 0.12351 (Simulation time: 0 hr 12 min 34 sec) 
Heartbeat CPU  0 instructions:  225000000 cycles: 1082258026 heartbeat IPC: 0.09225 cumulative IPC: 0.12318 (Simulation time: 0 hr 12 min 41 sec) 
Heartbeat CPU  0 instructions:  226000000 cycles: 1087082629 heartbeat IPC: 0.20727 cumulative IPC: 0.12358 (Simulation time: 0 hr 12 min 45 sec) 
Heartbeat CPU  0 instructions:  227000000 cycles: 1106920667 heartbeat IPC: 0.05041 cumulative IPC: 0.12218 (Simulation time: 0 hr 12 min 57 sec) 
Heartbeat CPU  0 instructions:  228000000 cycles: 1112969076 heartbeat IPC: 0.16533 cumulative IPC: 0.12243 (Simulation time: 0 hr 13 min 0 sec) 
Heartbeat CPU  0 instructions:  229000001 cycles: 1115174267 heartbeat IPC: 0.45348 cumulative IPC: 0.12313 (Simulation time: 0 hr 13 min 2 sec) 
Heartbeat CPU  0 instructions:  230000000 cycles: 1117532291 heartbeat IPC: 0.42408 cumulative IPC: 0.12380 (Simulation time: 0 hr 13 min 4 sec) 
Heartbeat CPU  0 instructions:  231000000 cycles: 1129621697 heartbeat IPC: 0.08272 cumulative IPC: 0.12334 (Simulation time: 0 hr 13 min 10 sec) 
Heartbeat CPU  0 instructions:  232000000 cycles: 1140048225 heartbeat IPC: 0.09591 cumulative IPC: 0.12307 (Simulation time: 0 hr 13 min 17 sec) 
Heartbeat CPU  0 instructions:  233000000 cycles: 1153095105 heartbeat IPC: 0.07665 cumulative IPC: 0.12251 (Simulation time: 0 hr 13 min 25 sec) 
Heartbeat CPU  0 instructions:  234000002 cycles: 1158655690 heartbeat IPC: 0.17984 cumulative IPC: 0.12280 (Simulation time: 0 hr 13 min 29 sec) 
Heartbeat CPU  0 instructions:  235000000 cycles: 1169904690 heartbeat IPC: 0.08890 cumulative IPC: 0.12246 (Simulation time: 0 hr 13 min 36 sec) 
Heartbeat CPU  0 instructions:  236000000 cycles: 1184196559 heartbeat IPC: 0.06997 cumulative IPC: 0.12179 (Simulation time: 0 hr 13 min 45 sec) 
Heartbeat CPU  0 instructions:  237000002 cycles: 1186498200 heartbeat IPC: 0.43447 cumulative IPC: 0.12243 (Simulation time: 0 hr 13 min 46 sec) 
Heartbeat CPU  0 instructions:  238000002 cycles: 1188467144 heartbeat IPC: 0.50789 cumulative IPC: 0.12311 (Simulation time: 0 hr 13 min 48 sec) 
Heartbeat CPU  0 instructions:  239000001 cycles: 1194683526 heartbeat IPC: 0.16087 cumulative IPC: 0.12331 (Simulation time: 0 hr 13 min 51 sec) 
Heartbeat CPU  0 instructions:  240000000 cycles: 1204566157 heartbeat IPC: 0.10119 cumulative IPC: 0.12312 (Simulation time: 0 hr 13 min 57 sec) 
Heartbeat CPU  0 instructions:  241000001 cycles: 1216215774 heartbeat IPC: 0.08584 cumulative IPC: 0.12274 (Simulation time: 0 hr 14 min 3 sec) 
Heartbeat CPU  0 instructions:  242000002 cycles: 1228331240 heartbeat IPC: 0.08254 cumulative IPC: 0.12232 (Simulation time: 0 hr 14 min 10 sec) 
Heartbeat CPU  0 instructions:  243000002 cycles: 1232988975 heartbeat IPC: 0.21470 cumulative IPC: 0.12269 (Simulation time: 0 hr 14 min 14 sec) 
Heartbeat CPU  0 instructions:  244000000 cycles: 1248061270 heartbeat IPC: 0.06635 cumulative IPC: 0.12197 (Simulation time: 0 hr 14 min 23 sec) 
Heartbeat CPU  0 instructions:  245000001 cycles: 1258678807 heartbeat IPC: 0.09418 cumulative IPC: 0.12173 (Simulation time: 0 hr 14 min 29 sec) 
Heartbeat CPU  0 instructions:  246000001 cycles: 1260993857 heartbeat IPC: 0.43196 cumulative IPC: 0.12233 (Simulation time: 0 hr 14 min 30 sec) 
Heartbeat CPU  0 instructions:  247000001 cycles: 1262875629 heartbeat IPC: 0.53141 cumulative IPC: 0.12297 (Simulation time: 0 hr 14 min 32 sec) 
Heartbeat CPU  0 instructions:  248000000 cycles: 1270864729 heartbeat IPC: 0.12517 cumulative IPC: 0.12299 (Simulation time: 0 hr 14 min 37 sec) 
Heartbeat CPU  0 instructions:  249000000 cycles: 1280584635 heartbeat IPC: 0.10288 cumulative IPC: 0.12283 (Simulation time: 0 hr 14 min 43 sec) 
Heartbeat CPU  0 instructions:  250000000 cycles: 1291320286 heartbeat IPC: 0.09315 cumulative IPC: 0.12257 (Simulation time: 0 hr 14 min 49 sec) 
Heartbeat CPU  0 instructions:  251000002 cycles: 1303369736 heartbeat IPC: 0.08299 cumulative IPC: 0.12218 (Simulation time: 0 hr 14 min 57 sec) 
Heartbeat CPU  0 instructions:  252000000 cycles: 1306947891 heartbeat IPC: 0.27947 cumulative IPC: 0.12263 (Simulation time: 0 hr 15 min 1 sec) 
Heartbeat CPU  0 instructions:  253000000 cycles: 1324923562 heartbeat IPC: 0.05563 cumulative IPC: 0.12168 (Simulation time: 0 hr 15 min 11 sec) 
Heartbeat CPU  0 instructions:  254000000 cycles: 1332684885 heartbeat IPC: 0.12884 cumulative IPC: 0.12172 (Simulation time: 0 hr 15 min 15 sec) 
Heartbeat CPU  0 instructions:  255000002 cycles: 1334950209 heartbeat IPC: 0.44144 cumulative IPC: 0.12229 (Simulation time: 0 hr 15 min 16 sec) 
Heartbeat CPU  0 instructions:  256000000 cycles: 1336925683 heartbeat IPC: 0.50621 cumulative IPC: 0.12289 (Simulation time: 0 hr 15 min 18 sec) 
Heartbeat CPU  0 instructions:  257000000 cycles: 1346727041 heartbeat IPC: 0.10203 cumulative IPC: 0.12273 (Simulation time: 0 hr 15 min 22 sec) 
Heartbeat CPU  0 instructions:  258000002 cycles: 1358326518 heartbeat IPC: 0.08621 cumulative IPC: 0.12240 (Simulation time: 0 hr 15 min 29 sec) 
Heartbeat CPU  0 instructions:  259000003 cycles: 1369045835 heartbeat IPC: 0.09329 cumulative IPC: 0.12216 (Simulation time: 0 hr 15 min 36 sec) 
Heartbeat CPU  0 instructions:  260000000 cycles: 1377733659 heartbeat IPC: 0.11510 cumulative IPC: 0.12211 (Simulation time: 0 hr 15 min 41 sec) 
Heartbeat CPU  0 instructions:  261000000 cycles: 1383803770 heartbeat IPC: 0.16474 cumulative IPC: 0.12231 (Simulation time: 0 hr 15 min 46 sec) 
Heartbeat CPU  0 instructions:  262000000 cycles: 1402181691 heartbeat IPC: 0.05441 cumulative IPC: 0.12138 (Simulation time: 0 hr 15 min 55 sec) 
Heartbeat CPU  0 instructions:  263000002 cycles: 1406466387 heartbeat IPC: 0.23339 cumulative IPC: 0.12173 (Simulation time: 0 hr 15 min 58 sec) 
Heartbeat CPU  0 instructions:  264000000 cycles: 1408646881 heartbeat IPC: 0.45861 cumulative IPC: 0.12228 (Simulation time: 0 hr 15 min 59 sec) 
Heartbeat CPU  0 instructions:  265000003 cycles: 1412230268 heartbeat IPC: 0.27907 cumulative IPC: 0.12270 (Simulation time: 0 hr 16 min 2 sec) 
Heartbeat CPU  0 instructions:  266000002 cycles: 1423436923 heartbeat IPC: 0.08923 cumulative IPC: 0.12242 (Simulation time: 0 hr 16 min 8 sec) 
Heartbeat CPU  0 instructions:  267000000 cycles: 1434837205 heartbeat IPC: 0.08772 cumulative IPC: 0.12213 (Simulation time: 0 hr 16 min 14 sec) 
Heartbeat CPU  0 instructions:  268000000 cycles: 1446688174 heartbeat IPC: 0.08438 cumulative IPC: 0.12181 (Simulation time: 0 hr 16 min 23 sec) 
Heartbeat CPU  0 instructions:  269000002 cycles: 1452269074 heartbeat IPC: 0.17918 cumulative IPC: 0.12204 (Simulation time: 0 hr 16 min 26 sec) 
Heartbeat CPU  0 instructions:  270000001 cycles: 1461438148 heartbeat IPC: 0.10906 cumulative IPC: 0.12196 (Simulation time: 0 hr 16 min 33 sec) 
Heartbeat CPU  0 instructions:  271000003 cycles: 1477827605 heartbeat IPC: 0.06101 cumulative IPC: 0.12125 (Simulation time: 0 hr 16 min 42 sec) 
Heartbeat CPU  0 instructions:  272000000 cycles: 1480149648 heartbeat IPC: 0.43065 cumulative IPC: 0.12176 (Simulation time: 0 hr 16 min 44 sec) 
Heartbeat CPU  0 instructions:  273000003 cycles: 1482206434 heartbeat IPC: 0.48620 cumulative IPC: 0.12229 (Simulation time: 0 hr 16 min 45 sec) 
Heartbeat CPU  0 instructions:  274000002 cycles: 1487467209 heartbeat IPC: 0.19009 cumulative IPC: 0.12254 (Simulation time: 0 hr 16 min 48 sec) 
Heartbeat CPU  0 instructions:  275000001 cycles: 1497937684 heartbeat IPC: 0.09551 cumulative IPC: 0.12234 (Simulation time: 0 hr 16 min 54 sec) 
Heartbeat CPU  0 instructions:  276000000 cycles: 1509466642 heartbeat IPC: 0.08674 cumulative IPC: 0.12205 (Simulation time: 0 hr 17 min 0 sec) 
Heartbeat CPU  0 instructions:  277000001 cycles: 1521009195 heartbeat IPC: 0.08664 cumulative IPC: 0.12177 (Simulation time: 0 hr 17 min 8 sec) 
Heartbeat CPU  0 instructions:  278000000 cycles: 1526134207 heartbeat IPC: 0.19512 cumulative IPC: 0.12203 (Simulation time: 0 hr 17 min 11 sec) 
Heartbeat CPU  0 instructions:  279000000 cycles: 1539118459 heartbeat IPC: 0.07702 cumulative IPC: 0.12163 (Simulation time: 0 hr 17 min 19 sec) 
Heartbeat CPU  0 instructions:  280000000 cycles: 1551487218 heartbeat IPC: 0.08085 cumulative IPC: 0.12129 (Simulation time: 0 hr 17 min 25 sec) 
Heartbeat CPU  0 instructions:  281000000 cycles: 1553795664 heartbeat IPC: 0.43319 cumulative IPC: 0.12178 (Simulation time: 0 hr 17 min 27 sec) 
Heartbeat CPU  0 instructions:  282000000 cycles: 1555743451 heartbeat IPC: 0.51340 cumulative IPC: 0.12229 (Simulation time: 0 hr 17 min 28 sec) 
Heartbeat CPU  0 instructions:  283000003 cycles: 1562755489 heartbeat IPC: 0.14261 cumulative IPC: 0.12239 (Simulation time: 0 hr 17 min 32 sec) 
Heartbeat CPU  0 instructions:  284000000 cycles: 1571779983 heartbeat IPC: 0.11081 cumulative IPC: 0.12232 (Simulation time: 0 hr 17 min 38 sec) 
Heartbeat CPU  0 instructions:  285000001 cycles: 1583684457 heartbeat IPC: 0.08400 cumulative IPC: 0.12202 (Simulation time: 0 hr 17 min 45 sec) 
Heartbeat CPU  0 instructions:  286000000 cycles: 1595337440 heartbeat IPC: 0.08581 cumulative IPC: 0.12174 (Simulation time: 0 hr 17 min 54 sec) 
Heartbeat CPU  0 instructions:  287000003 cycles: 1599636549 heartbeat IPC: 0.23261 cumulative IPC: 0.12205 (Simulation time: 0 hr 17 min 58 sec) 
Heartbeat CPU  0 instructions:  288000000 cycles: 1615693878 heartbeat IPC: 0.06228 cumulative IPC: 0.12143 (Simulation time: 0 hr 18 min 9 sec) 
Heartbeat CPU  0 instructions:  289000000 cycles: 1625107473 heartbeat IPC: 0.10623 cumulative IPC: 0.12134 (Simulation time: 0 hr 18 min 15 sec) 
Heartbeat CPU  0 instructions:  290000000 cycles: 1627402543 heartbeat IPC: 0.43572 cumulative IPC: 0.12180 (Simulation time: 0 hr 18 min 16 sec) 
Heartbeat CPU  0 instructions:  291000000 cycles: 1629230332 heartbeat IPC: 0.54711 cumulative IPC: 0.12230 (Simulation time: 0 hr 18 min 18 sec) 
Heartbeat CPU  0 instructions:  292000000 cycles: 1638051568 heartbeat IPC: 0.11336 cumulative IPC: 0.12225 (Simulation time: 0 hr 18 min 23 sec) 
Heartbeat CPU  0 instructions:  293000002 cycles: 1648933403 heartbeat IPC: 0.09190 cumulative IPC: 0.12204 (Simulation time: 0 hr 18 min 30 sec) 
Heartbeat CPU  0 instructions:  294000001 cycles: 1658874707 heartbeat IPC: 0.10059 cumulative IPC: 0.12191 (Simulation time: 0 hr 18 min 36 sec) 
Heartbeat CPU  0 instructions:  295000003 cycles: 1669702798 heartbeat IPC: 0.09235 cumulative IPC: 0.12171 (Simulation time: 0 hr 18 min 43 sec) 
Heartbeat CPU  0 instructions:  296000000 cycles: 1673353007 heartbeat IPC: 0.27396 cumulative IPC: 0.12205 (Simulation time: 0 hr 18 min 46 sec) 
Heartbeat CPU  0 instructions:  297000001 cycles: 1692395235 heartbeat IPC: 0.05251 cumulative IPC: 0.12124 (Simulation time: 0 hr 18 min 59 sec) 
Heartbeat CPU  0 instructions:  298000000 cycles: 1698712147 heartbeat IPC: 0.15831 cumulative IPC: 0.12138 (Simulation time: 0 hr 19 min 3 sec) 
Heartbeat CPU  0 instructions:  299000000 cycles: 1700957202 heartbeat IPC: 0.44542 cumulative IPC: 0.12183 (Simulation time: 0 hr 19 min 4 sec) 
Heartbeat CPU  0 instructions:  300000000 cycles: 1707267122 heartbeat IPC: 0.15848 cumulative IPC: 0.12197 (Simulation time: 0 hr 19 min 8 sec) 
Heartbeat CPU  0 instructions:  301000001 cycles: 1721366641 heartbeat IPC: 0.07092 cumulative IPC: 0.12153 (Simulation time: 0 hr 19 min 15 sec) 
Heartbeat CPU  0 instructions:  302000001 cycles: 1729136700 heartbeat IPC: 0.12870 cumulative IPC: 0.12157 (Simulation time: 0 hr 19 min 19 sec) 
Heartbeat CPU  0 instructions:  303000000 cycles: 1739580701 heartbeat IPC: 0.09575 cumulative IPC: 0.12140 (Simulation time: 0 hr 19 min 26 sec) 
Heartbeat CPU  0 instructions:  304000000 cycles: 1748861273 heartbeat IPC: 0.10775 cumulative IPC: 0.12133 (Simulation time: 0 hr 19 min 32 sec) 
Heartbeat CPU  0 instructions:  305000003 cycles: 1759262336 heartbeat IPC: 0.09614 cumulative IPC: 0.12117 (Simulation time: 0 hr 19 min 38 sec) 
Heartbeat CPU  0 instructions:  306000003 cycles: 1763597134 heartbeat IPC: 0.23069 cumulative IPC: 0.12145 (Simulation time: 0 hr 19 min 42 sec) 
Heartbeat CPU  0 instructions:  307000001 cycles: 1782409308 heartbeat IPC: 0.05316 cumulative IPC: 0.12071 (Simulation time: 0 hr 19 min 53 sec) 
Heartbeat CPU  0 instructions:  308000000 cycles: 1788239347 heartbeat IPC: 0.17153 cumulative IPC: 0.12088 (Simulation time: 0 hr 19 min 57 sec) 
Heartbeat CPU  0 instructions:  309000001 cycles: 1790473675 heartbeat IPC: 0.44756 cumulative IPC: 0.12130 (Simulation time: 0 hr 19 min 58 sec) 
Heartbeat CPU  0 instructions:  310000001 cycles: 1795973455 heartbeat IPC: 0.18183 cumulative IPC: 0.12149 (Simulation time: 0 hr 20 min 1 sec) 
Heartbeat CPU  0 instructions:  311000001 cycles: 1807428390 heartbeat IPC: 0.08730 cumulative IPC: 0.12127 (Simulation time: 0 hr 20 min 8 sec) 
Heartbeat CPU  0 instructions:  312000000 cycles: 1816344836 heartbeat IPC: 0.11215 cumulative IPC: 0.12122 (Simulation time: 0 hr 20 min 12 sec) 
Heartbeat CPU  0 instructions:  313000000 cycles: 1827642399 heartbeat IPC: 0.08851 cumulative IPC: 0.12101 (Simulation time: 0 hr 20 min 19 sec) 
Heartbeat CPU  0 instructions:  314000001 cycles: 1835737437 heartbeat IPC: 0.12353 cumulative IPC: 0.12102 (Simulation time: 0 hr 20 min 25 sec) 
Heartbeat CPU  0 instructions:  315000000 cycles: 1849405711 heartbeat IPC: 0.07316 cumulative IPC: 0.12066 (Simulation time: 0 hr 20 min 32 sec) 
Heartbeat CPU  0 instructions:  316000000 cycles: 1863520388 heartbeat IPC: 0.07085 cumulative IPC: 0.12026 (Simulation time: 0 hr 20 min 39 sec) 
Heartbeat CPU  0 instructions:  317000002 cycles: 1877474083 heartbeat IPC: 0.07167 cumulative IPC: 0.11989 (Simulation time: 0 hr 20 min 49 sec) 
Heartbeat CPU  0 instructions:  318000000 cycles: 1887586873 heartbeat IPC: 0.09888 cumulative IPC: 0.11977 (Simulation time: 0 hr 20 min 55 sec) 
Heartbeat CPU  0 instructions:  319000001 cycles: 1895835780 heartbeat IPC: 0.12123 cumulative IPC: 0.11978 (Simulation time: 0 hr 21 min 1 sec) 
Heartbeat CPU  0 instructions:  320000000 cycles: 1902905017 heartbeat IPC: 0.14146 cumulative IPC: 0.11986 (Simulation time: 0 hr 21 min 6 sec) 
Heartbeat CPU  0 instructions:  321000003 cycles: 1909375454 heartbeat IPC: 0.15455 cumulative IPC: 0.11999 (Simulation time: 0 hr 21 min 10 sec) 
Heartbeat CPU  0 instructions:  322000001 cycles: 1913539962 heartbeat IPC: 0.24012 cumulative IPC: 0.12026 (Simulation time: 0 hr 21 min 13 sec) 
Heartbeat CPU  0 instructions:  323000002 cycles: 1917749871 heartbeat IPC: 0.23754 cumulative IPC: 0.12052 (Simulation time: 0 hr 21 min 16 sec) 
Heartbeat CPU  0 instructions:  324000000 cycles: 1921195623 heartbeat IPC: 0.29021 cumulative IPC: 0.12084 (Simulation time: 0 hr 21 min 19 sec) 
Heartbeat CPU  0 instructions:  325000000 cycles: 1924774157 heartbeat IPC: 0.27944 cumulative IPC: 0.12114 (Simulation time: 0 hr 21 min 22 sec) 
Heartbeat CPU  0 instructions:  326000002 cycles: 1928437566 heartbeat IPC: 0.27297 cumulative IPC: 0.12144 (Simulation time: 0 hr 21 min 25 sec) 
Heartbeat CPU  0 instructions:  327000000 cycles: 1933272945 heartbeat IPC: 0.20681 cumulative IPC: 0.12166 (Simulation time: 0 hr 21 min 30 sec) 
Heartbeat CPU  0 instructions:  328000000 cycles: 1937854066 heartbeat IPC: 0.21829 cumulative IPC: 0.12190 (Simulation time: 0 hr 21 min 34 sec) 
Heartbeat CPU  0 instructions:  329000002 cycles: 1943902093 heartbeat IPC: 0.16534 cumulative IPC: 0.12204 (Simulation time: 0 hr 21 min 38 sec) 
Heartbeat CPU  0 instructions:  330000000 cycles: 1953745927 heartbeat IPC: 0.10159 cumulative IPC: 0.12193 (Simulation time: 0 hr 21 min 44 sec) 
Heartbeat CPU  0 instructions:  331000000 cycles: 1962495659 heartbeat IPC: 0.11429 cumulative IPC: 0.12190 (Simulation time: 0 hr 21 min 50 sec) 
Heartbeat CPU  0 instructions:  332000000 cycles: 1968495031 heartbeat IPC: 0.16668 cumulative IPC: 0.12204 (Simulation time: 0 hr 21 min 54 sec) 
Heartbeat CPU  0 instructions:  333000003 cycles: 1981248202 heartbeat IPC: 0.07841 cumulative IPC: 0.12175 (Simulation time: 0 hr 22 min 3 sec) 
Heartbeat CPU  0 instructions:  334000000 cycles: 1986851042 heartbeat IPC: 0.17848 cumulative IPC: 0.12192 (Simulation time: 0 hr 22 min 8 sec) 
Heartbeat CPU  0 instructions:  335000001 cycles: 2001355552 heartbeat IPC: 0.06894 cumulative IPC: 0.12152 (Simulation time: 0 hr 22 min 17 sec) 
Heartbeat CPU  0 instructions:  336000000 cycles: 2013201325 heartbeat IPC: 0.08442 cumulative IPC: 0.12129 (Simulation time: 0 hr 22 min 23 sec) 
Heartbeat CPU  0 instructions:  337000000 cycles: 2015470724 heartbeat IPC: 0.44065 cumulative IPC: 0.12166 (Simulation time: 0 hr 22 min 25 sec) 
Heartbeat CPU  0 instructions:  338000000 cycles: 2017393943 heartbeat IPC: 0.51996 cumulative IPC: 0.12206 (Simulation time: 0 hr 22 min 27 sec) 
Heartbeat CPU  0 instructions:  339000001 cycles: 2029201875 heartbeat IPC: 0.08469 cumulative IPC: 0.12183 (Simulation time: 0 hr 22 min 32 sec) 
Heartbeat CPU  0 instructions:  340000000 cycles: 2037965563 heartbeat IPC: 0.11411 cumulative IPC: 0.12180 (Simulation time: 0 hr 22 min 36 sec) 
Heartbeat CPU  0 instructions:  341000002 cycles: 2048896988 heartbeat IPC: 0.09148 cumulative IPC: 0.12163 (Simulation time: 0 hr 22 min 42 sec) 
Heartbeat CPU  0 instructions:  342000001 cycles: 2059680510 heartbeat IPC: 0.09273 cumulative IPC: 0.12147 (Simulation time: 0 hr 22 min 48 sec) 
Heartbeat CPU  0 instructions:  343000003 cycles: 2071253020 heartbeat IPC: 0.08641 cumulative IPC: 0.12127 (Simulation time: 0 hr 22 min 54 sec) 
Heartbeat CPU  0 instructions:  344000000 cycles: 2075365912 heartbeat IPC: 0.24314 cumulative IPC: 0.12152 (Simulation time: 0 hr 22 min 58 sec) 
Heartbeat CPU  0 instructions:  345000000 cycles: 2092456206 heartbeat IPC: 0.05851 cumulative IPC: 0.12099 (Simulation time: 0 hr 23 min 6 sec) 
Heartbeat CPU  0 instructions:  346000000 cycles: 2101141420 heartbeat IPC: 0.11514 cumulative IPC: 0.12096 (Simulation time: 0 hr 23 min 11 sec) 
Heartbeat CPU  0 instructions:  347000000 cycles: 2103402647 heartbeat IPC: 0.44224 cumulative IPC: 0.12132 (Simulation time: 0 hr 23 min 12 sec) 
Heartbeat CPU  0 instructions:  348000000 cycles: 2105620524 heartbeat IPC: 0.45088 cumulative IPC: 0.12168 (Simulation time: 0 hr 23 min 14 sec) 
Heartbeat CPU  0 instructions:  349000000 cycles: 2119940911 heartbeat IPC: 0.06983 cumulative IPC: 0.12132 (Simulation time: 0 hr 23 min 20 sec) 
Heartbeat CPU  0 instructions:  350000000 cycles: 2127599977 heartbeat IPC: 0.13056 cumulative IPC: 0.12135 (Simulation time: 0 hr 23 min 24 sec) 
Heartbeat CPU  0 instructions:  351000002 cycles: 2137209743 heartbeat IPC: 0.10406 cumulative IPC: 0.12127 (Simulation time: 0 hr 23 min 29 sec) 
Heartbeat CPU  0 instructions:  352000000 cycles: 2148347771 heartbeat IPC: 0.08978 cumulative IPC: 0.12110 (Simulation time: 0 hr 23 min 35 sec) 
Heartbeat CPU  0 instructions:  353000001 cycles: 2160547298 heartbeat IPC: 0.08197 cumulative IPC: 0.12088 (Simulation time: 0 hr 23 min 42 sec) 
Heartbeat CPU  0 instructions:  354000001 cycles: 2164495718 heartbeat IPC: 0.25327 cumulative IPC: 0.12112 (Simulation time: 0 hr 23 min 46 sec) 
Heartbeat CPU  0 instructions:  355000002 cycles: 2181987642 heartbeat IPC: 0.05717 cumulative IPC: 0.12060 (Simulation time: 0 hr 23 min 55 sec) 
Heartbeat CPU  0 instructions:  356000000 cycles: 2190361208 heartbeat IPC: 0.11942 cumulative IPC: 0.12059 (Simulation time: 0 hr 23 min 59 sec) 
Heartbeat CPU  0 instructions:  357000002 cycles: 2192633396 heartbeat IPC: 0.44011 cumulative IPC: 0.12093 (Simulation time: 0 hr 24 min 1 sec) 
Heartbeat CPU  0 instructions:  358000000 cycles: 2195390538 heartbeat IPC: 0.36269 cumulative IPC: 0.12125 (Simulation time: 0 hr 24 min 3 sec) 
Heartbeat CPU  0 instructions:  359000001 cycles: 2209253592 heartbeat IPC: 0.07213 cumulative IPC: 0.12093 (Simulation time: 0 hr 24 min 9 sec) 
Heartbeat CPU  0 instructions:  360000000 cycles: 2217063403 heartbeat IPC: 0.12804 cumulative IPC: 0.12095 (Simulation time: 0 hr 24 min 12 sec) 
Heartbeat CPU  0 instructions:  361000001 cycles: 2226696357 heartbeat IPC: 0.10381 cumulative IPC: 0.12088 (Simulation time: 0 hr 24 min 18 sec) 
Heartbeat CPU  0 instructions:  362000000 cycles: 2237516003 heartbeat IPC: 0.09242 cumulative IPC: 0.12074 (Simulation time: 0 hr 24 min 24 sec) 
Heartbeat CPU  0 instructions:  363000000 cycles: 2249583235 heartbeat IPC: 0.08287 cumulative IPC: 0.12053 (Simulation time: 0 hr 24 min 31 sec) 
Heartbeat CPU  0 instructions:  364000000 cycles: 2253249674 heartbeat IPC: 0.27274 cumulative IPC: 0.12078 (Simulation time: 0 hr 24 min 34 sec) 
Heartbeat CPU  0 instructions:  365000003 cycles: 2271077584 heartbeat IPC: 0.05609 cumulative IPC: 0.12026 (Simulation time: 0 hr 24 min 43 sec) 
Heartbeat CPU  0 instructions:  366000000 cycles: 2278998861 heartbeat IPC: 0.12624 cumulative IPC: 0.12028 (Simulation time: 0 hr 24 min 47 sec) 
Heartbeat CPU  0 instructions:  367000001 cycles: 2281266913 heartbeat IPC: 0.44091 cumulative IPC: 0.12061 (Simulation time: 0 hr 24 min 49 sec) 
Heartbeat CPU  0 instructions:  368000000 cycles: 2284597514 heartbeat IPC: 0.30025 cumulative IPC: 0.12088 (Simulation time: 0 hr 24 min 51 sec) 
Heartbeat CPU  0 instructions:  369000001 cycles: 2298002391 heartbeat IPC: 0.07460 cumulative IPC: 0.12060 (Simulation time: 0 hr 24 min 56 sec) 
Heartbeat CPU  0 instructions:  370000003 cycles: 2305921462 heartbeat IPC: 0.12628 cumulative IPC: 0.12062 (Simulation time: 0 hr 25 min 0 sec) 
Heartbeat CPU  0 instructions:  371000001 cycles: 2315865414 heartbeat IPC: 0.10056 cumulative IPC: 0.12053 (Simulation time: 0 hr 25 min 6 sec) 
Heartbeat CPU  0 instructions:  372000000 cycles: 2326249224 heartbeat IPC: 0.09630 cumulative IPC: 0.12042 (Simulation time: 0 hr 25 min 11 sec) 
Heartbeat CPU  0 instructions:  373000003 cycles: 2338181557 heartbeat IPC: 0.08381 cumulative IPC: 0.12023 (Simulation time: 0 hr 25 min 18 sec) 
Heartbeat CPU  0 instructions:  374000001 cycles: 2341692563 heartbeat IPC: 0.28482 cumulative IPC: 0.12048 (Simulation time: 0 hr 25 min 21 sec) 
Heartbeat CPU  0 instructions:  375000003 cycles: 2359922701 heartbeat IPC: 0.05485 cumulative IPC: 0.11996 (Simulation time: 0 hr 25 min 30 sec) 
Heartbeat CPU  0 instructions:  376000000 cycles: 2367381575 heartbeat IPC: 0.13407 cumulative IPC: 0.12001 (Simulation time: 0 hr 25 min 34 sec) 
Heartbeat CPU  0 instructions:  377000000 cycles: 2369637930 heartbeat IPC: 0.44319 cumulative IPC: 0.12032 (Simulation time: 0 hr 25 min 36 sec) 
Heartbeat CPU  0 instructions:  378000003 cycles: 2373535192 heartbeat IPC: 0.25659 cumulative IPC: 0.12055 (Simulation time: 0 hr 25 min 38 sec) 
Heartbeat CPU  0 instructions:  379000002 cycles: 2386473940 heartbeat IPC: 0.07729 cumulative IPC: 0.12031 (Simulation time: 0 hr 25 min 43 sec) 
Heartbeat CPU  0 instructions:  380000000 cycles: 2394565672 heartbeat IPC: 0.12358 cumulative IPC: 0.12032 (Simulation time: 0 hr 25 min 47 sec) 
Heartbeat CPU  0 instructions:  381000000 cycles: 2404888273 heartbeat IPC: 0.09687 cumulative IPC: 0.12022 (Simulation time: 0 hr 25 min 53 sec) 
Heartbeat CPU  0 instructions:  382000003 cycles: 2414892749 heartbeat IPC: 0.09996 cumulative IPC: 0.12013 (Simulation time: 0 hr 25 min 59 sec) 
Heartbeat CPU  0 instructions:  383000001 cycles: 2426588046 heartbeat IPC: 0.08550 cumulative IPC: 0.11996 (Simulation time: 0 hr 26 min 6 sec) 
Heartbeat CPU  0 instructions:  384000000 cycles: 2430028809 heartbeat IPC: 0.29063 cumulative IPC: 0.12021 (Simulation time: 0 hr 26 min 9 sec) 
Heartbeat CPU  0 instructions:  385000000 cycles: 2448779967 heartbeat IPC: 0.05333 cumulative IPC: 0.11968 (Simulation time: 0 hr 26 min 18 sec) 
Heartbeat CPU  0 instructions:  386000002 cycles: 2455731422 heartbeat IPC: 0.14386 cumulative IPC: 0.11975 (Simulation time: 0 hr 26 min 22 sec) 
Heartbeat CPU  0 instructions:  387000000 cycles: 2457984557 heartbeat IPC: 0.44383 cumulative IPC: 0.12006 (Simulation time: 0 hr 26 min 24 sec) 
Heartbeat CPU  0 instructions:  388000000 cycles: 2462408158 heartbeat IPC: 0.22606 cumulative IPC: 0.12025 (Simulation time: 0 hr 26 min 26 sec) 
Heartbeat CPU  0 instructions:  389000001 cycles: 2474870523 heartbeat IPC: 0.08024 cumulative IPC: 0.12005 (Simulation time: 0 hr 26 min 32 sec) 
Heartbeat CPU  0 instructions:  390000002 cycles: 2483151094 heartbeat IPC: 0.12076 cumulative IPC: 0.12005 (Simulation time: 0 hr 26 min 35 sec) 
Heartbeat CPU  0 instructions:  391000001 cycles: 2493820600 heartbeat IPC: 0.09372 cumulative IPC: 0.11993 (Simulation time: 0 hr 26 min 42 sec) 
Heartbeat CPU  0 instructions:  392000000 cycles: 2503817328 heartbeat IPC: 0.10003 cumulative IPC: 0.11985 (Simulation time: 0 hr 26 min 47 sec) 
Heartbeat CPU  0 instructions:  393000002 cycles: 2514914677 heartbeat IPC: 0.09011 cumulative IPC: 0.11972 (Simulation time: 0 hr 26 min 53 sec) 
Heartbeat CPU  0 instructions:  394000002 cycles: 2518252022 heartbeat IPC: 0.29964 cumulative IPC: 0.11996 (Simulation time: 0 hr 26 min 56 sec) 
Heartbeat CPU  0 instructions:  395000001 cycles: 2537436686 heartbeat IPC: 0.05212 cumulative IPC: 0.11944 (Simulation time: 0 hr 27 min 6 sec) 
Heartbeat CPU  0 instructions:  396000000 cycles: 2543955431 heartbeat IPC: 0.15340 cumulative IPC: 0.11952 (Simulation time: 0 hr 27 min 10 sec) 
Heartbeat CPU  0 instructions:  397000000 cycles: 2546207717 heartbeat IPC: 0.44399 cumulative IPC: 0.11982 (Simulation time: 0 hr 27 min 11 sec) 
Heartbeat CPU  0 instructions:  398000000 cycles: 2551138010 heartbeat IPC: 0.20283 cumulative IPC: 0.11998 (Simulation time: 0 hr 27 min 14 sec) 
Heartbeat CPU  0 instructions:  399000001 cycles: 2563187986 heartbeat IPC: 0.08299 cumulative IPC: 0.11981 (Simulation time: 0 hr 27 min 19 sec) 
Heartbeat CPU  0 instructions:  400000000 cycles: 2571674154 heartbeat IPC: 0.11784 cumulative IPC: 0.11980 (Simulation time: 0 hr 27 min 23 sec) 
Heartbeat CPU  0 instructions:  401000000 cycles: 2582659365 heartbeat IPC: 0.09103 cumulative IPC: 0.11967 (Simulation time: 0 hr 27 min 29 sec) 
Heartbeat CPU  0 instructions:  402000000 cycles: 2592676997 heartbeat IPC: 0.09982 cumulative IPC: 0.11959 (Simulation time: 0 hr 27 min 35 sec) 
Heartbeat CPU  0 instructions:  403000000 cycles: 2603257020 heartbeat IPC: 0.09452 cumulative IPC: 0.11949 (Simulation time: 0 hr 27 min 41 sec) 
Heartbeat CPU  0 instructions:  404000000 cycles: 2607313956 heartbeat IPC: 0.24649 cumulative IPC: 0.11969 (Simulation time: 0 hr 27 min 44 sec) 
Heartbeat CPU  0 instructions:  405000002 cycles: 2626117605 heartbeat IPC: 0.05318 cumulative IPC: 0.11920 (Simulation time: 0 hr 27 min 54 sec) 
Heartbeat CPU  0 instructions:  406000000 cycles: 2632187733 heartbeat IPC: 0.16474 cumulative IPC: 0.11931 (Simulation time: 0 hr 27 min 57 sec) 
Heartbeat CPU  0 instructions:  407000000 cycles: 2634423946 heartbeat IPC: 0.44718 cumulative IPC: 0.11960 (Simulation time: 0 hr 27 min 59 sec) 
Heartbeat CPU  0 instructions:  408000000 cycles: 2639742249 heartbeat IPC: 0.18803 cumulative IPC: 0.11974 (Simulation time: 0 hr 28 min 1 sec) 
Heartbeat CPU  0 instructions:  409000002 cycles: 2651389910 heartbeat IPC: 0.08585 cumulative IPC: 0.11959 (Simulation time: 0 hr 28 min 7 sec) 
Heartbeat CPU  0 instructions:  410000000 cycles: 2660166141 heartbeat IPC: 0.11394 cumulative IPC: 0.11957 (Simulation time: 0 hr 28 min 10 sec) 
Heartbeat CPU  0 instructions:  411000002 cycles: 2671326856 heartbeat IPC: 0.08960 cumulative IPC: 0.11944 (Simulation time: 0 hr 28 min 17 sec) 
Heartbeat CPU  0 instructions:  412000000 cycles: 2681349912 heartbeat IPC: 0.09977 cumulative IPC: 0.11936 (Simulation time: 0 hr 28 min 23 sec) 
Heartbeat CPU  0 instructions:  413000001 cycles: 2691541982 heartbeat IPC: 0.09812 cumulative IPC: 0.11928 (Simulation time: 0 hr 28 min 29 sec) 
Heartbeat CPU  0 instructions:  414000000 cycles: 2696172354 heartbeat IPC: 0.21597 cumulative IPC: 0.11945 (Simulation time: 0 hr 28 min 32 sec) 
Heartbeat CPU  0 instructions:  415000003 cycles: 2714803517 heartbeat IPC: 0.05367 cumulative IPC: 0.11899 (Simulation time: 0 hr 28 min 42 sec) 
Heartbeat CPU  0 instructions:  416000000 cycles: 2720397727 heartbeat IPC: 0.17876 cumulative IPC: 0.11911 (Simulation time: 0 hr 28 min 45 sec) 
Heartbeat CPU  0 instructions:  417000000 cycles: 2722617615 heartbeat IPC: 0.45047 cumulative IPC: 0.11939 (Simulation time: 0 hr 28 min 46 sec) 
Heartbeat CPU  0 instructions:  418000000 cycles: 2728328556 heartbeat IPC: 0.17510 cumulative IPC: 0.11951 (Simulation time: 0 hr 28 min 49 sec) 
Heartbeat CPU  0 instructions:  419000001 cycles: 2739555464 heartbeat IPC: 0.08907 cumulative IPC: 0.11938 (Simulation time: 0 hr 28 min 54 sec) 
Heartbeat CPU  0 instructions:  420000000 cycles: 2748684543 heartbeat IPC: 0.10954 cumulative IPC: 0.11935 (Simulation time: 0 hr 28 min 58 sec) 
Heartbeat CPU  0 instructions:  421000000 cycles: 2760021944 heartbeat IPC: 0.08820 cumulative IPC: 0.11922 (Simulation time: 0 hr 29 min 5 sec) 
Heartbeat CPU  0 instructions:  422000003 cycles: 2770104979 heartbeat IPC: 0.09918 cumulative IPC: 0.11914 (Simulation time: 0 hr 29 min 11 sec) 
Heartbeat CPU  0 instructions:  423000003 cycles: 2779873831 heartbeat IPC: 0.10237 cumulative IPC: 0.11908 (Simulation time: 0 hr 29 min 16 sec) 
Heartbeat CPU  0 instructions:  424000000 cycles: 2785031379 heartbeat IPC: 0.19389 cumulative IPC: 0.11923 (Simulation time: 0 hr 29 min 20 sec) 
Heartbeat CPU  0 instructions:  425000001 cycles: 2803483950 heartbeat IPC: 0.05419 cumulative IPC: 0.11879 (Simulation time: 0 hr 29 min 30 sec) 
Heartbeat CPU  0 instructions:  426000002 cycles: 2808626205 heartbeat IPC: 0.19447 cumulative IPC: 0.11893 (Simulation time: 0 hr 29 min 33 sec) 
Heartbeat CPU  0 instructions:  427000002 cycles: 2810829581 heartbeat IPC: 0.45385 cumulative IPC: 0.11920 (Simulation time: 0 hr 29 min 34 sec) 
Heartbeat CPU  0 instructions:  428000000 cycles: 2816865345 heartbeat IPC: 0.16568 cumulative IPC: 0.11930 (Simulation time: 0 hr 29 min 37 sec) 
Heartbeat CPU  0 instructions:  429000001 cycles: 2827721509 heartbeat IPC: 0.09211 cumulative IPC: 0.11919 (Simulation time: 0 hr 29 min 42 sec) 
Heartbeat CPU  0 instructions:  430000002 cycles: 2837079502 heartbeat IPC: 0.10686 cumulative IPC: 0.11915 (Simulation time: 0 hr 29 min 46 sec) 
Heartbeat CPU  0 instructions:  431000003 cycles: 2848533377 heartbeat IPC: 0.08731 cumulative IPC: 0.11902 (Simulation time: 0 hr 29 min 53 sec) 
Heartbeat CPU  0 instructions:  432000000 cycles: 2856169695 heartbeat IPC: 0.13095 cumulative IPC: 0.11905 (Simulation time: 0 hr 29 min 58 sec) 
Heartbeat CPU  0 instructions:  433000002 cycles: 2870381992 heartbeat IPC: 0.07036 cumulative IPC: 0.11881 (Simulation time: 0 hr 30 min 4 sec) 
Heartbeat CPU  0 instructions:  434000000 cycles: 2884130734 heartbeat IPC: 0.07273 cumulative IPC: 0.11858 (Simulation time: 0 hr 30 min 12 sec) 
Heartbeat CPU  0 instructions:  435000001 cycles: 2898123881 heartbeat IPC: 0.07146 cumulative IPC: 0.11835 (Simulation time: 0 hr 30 min 21 sec) 
Heartbeat CPU  0 instructions:  436000000 cycles: 2908172076 heartbeat IPC: 0.09952 cumulative IPC: 0.11828 (Simulation time: 0 hr 30 min 26 sec) 
Heartbeat CPU  0 instructions:  437000002 cycles: 2916317951 heartbeat IPC: 0.12276 cumulative IPC: 0.11829 (Simulation time: 0 hr 30 min 31 sec) 
Heartbeat CPU  0 instructions:  438000001 cycles: 2923371149 heartbeat IPC: 0.14178 cumulative IPC: 0.11835 (Simulation time: 0 hr 30 min 36 sec) 
Heartbeat CPU  0 instructions:  439000000 cycles: 2929766508 heartbeat IPC: 0.15636 cumulative IPC: 0.11844 (Simulation time: 0 hr 30 min 40 sec) 
Heartbeat CPU  0 instructions:  440000000 cycles: 2933928758 heartbeat IPC: 0.24025 cumulative IPC: 0.11861 (Simulation time: 0 hr 30 min 43 sec) 
Heartbeat CPU  0 instructions:  441000000 cycles: 2938088845 heartbeat IPC: 0.24038 cumulative IPC: 0.11879 (Simulation time: 0 hr 30 min 46 sec) 
Heartbeat CPU  0 instructions:  442000000 cycles: 2941505653 heartbeat IPC: 0.29267 cumulative IPC: 0.11900 (Simulation time: 0 hr 30 min 49 sec) 
Heartbeat CPU  0 instructions:  443000002 cycles: 2945105456 heartbeat IPC: 0.27779 cumulative IPC: 0.11920 (Simulation time: 0 hr 30 min 52 sec) 
Heartbeat CPU  0 instructions:  444000000 cycles: 2948753880 heartbeat IPC: 0.27409 cumulative IPC: 0.11939 (Simulation time: 0 hr 30 min 55 sec) 
Heartbeat CPU  0 instructions:  445000002 cycles: 2953843611 heartbeat IPC: 0.19647 cumulative IPC: 0.11953 (Simulation time: 0 hr 30 min 59 sec) 
Heartbeat CPU  0 instructions:  446000003 cycles: 2958575301 heartbeat IPC: 0.21134 cumulative IPC: 0.11968 (Simulation time: 0 hr 31 min 3 sec) 
Heartbeat CPU  0 instructions:  447000001 cycles: 2964288984 heartbeat IPC: 0.17502 cumulative IPC: 0.11979 (Simulation time: 0 hr 31 min 7 sec) 
Heartbeat CPU  0 instructions:  448000000 cycles: 2974231525 heartbeat IPC: 0.10058 cumulative IPC: 0.11972 (Simulation time: 0 hr 31 min 13 sec) 
Heartbeat CPU  0 instructions:  449000003 cycles: 2983126554 heartbeat IPC: 0.11242 cumulative IPC: 0.11970 (Simulation time: 0 hr 31 min 19 sec) 
Heartbeat CPU  0 instructions:  450000000 cycles: 2989065225 heartbeat IPC: 0.16839 cumulative IPC: 0.11980 (Simulation time: 0 hr 31 min 24 sec) 
Heartbeat CPU  0 instructions:  451000003 cycles: 3001681129 heartbeat IPC: 0.07927 cumulative IPC: 0.11962 (Simulation time: 0 hr 31 min 32 sec) 
Heartbeat CPU  0 instructions:  452000000 cycles: 3007220920 heartbeat IPC: 0.18051 cumulative IPC: 0.11974 (Simulation time: 0 hr 31 min 36 sec) 
Heartbeat CPU  0 instructions:  453000000 cycles: 3022376752 heartbeat IPC: 0.06598 cumulative IPC: 0.11946 (Simulation time: 0 hr 31 min 45 sec) 
Heartbeat CPU  0 instructions:  454000000 cycles: 3033546588 heartbeat IPC: 0.08953 cumulative IPC: 0.11935 (Simulation time: 0 hr 31 min 51 sec) 
Heartbeat CPU  0 instructions:  455000000 cycles: 3035819607 heartbeat IPC: 0.43994 cumulative IPC: 0.11960 (Simulation time: 0 hr 31 min 52 sec) 
Heartbeat CPU  0 instructions:  456000000 cycles: 3037721457 heartbeat IPC: 0.52580 cumulative IPC: 0.11986 (Simulation time: 0 hr 31 min 54 sec) 
Heartbeat CPU  0 instructions:  457000002 cycles: 3050008856 heartbeat IPC: 0.08138 cumulative IPC: 0.11970 (Simulation time: 0 hr 31 min 59 sec) 
Heartbeat CPU  0 instructions:  458000002 cycles: 3058709139 heartbeat IPC: 0.11494 cumulative IPC: 0.11968 (Simulation time: 0 hr 32 min 4 sec) 
Heartbeat CPU  0 instructions:  459000000 cycles: 3069310985 heartbeat IPC: 0.09432 cumulative IPC: 0.11959 (Simulation time: 0 hr 32 min 11 sec) 
Heartbeat CPU  0 instructions:  460000000 cycles: 3080165181 heartbeat IPC: 0.09213 cumulative IPC: 0.11949 (Simulation time: 0 hr 32 min 17 sec) 
Heartbeat CPU  0 instructions:  461000001 cycles: 3091836949 heartbeat IPC: 0.08568 cumulative IPC: 0.11936 (Simulation time: 0 hr 32 min 24 sec) 
Heartbeat CPU  0 instructions:  462000001 cycles: 3095703965 heartbeat IPC: 0.25860 cumulative IPC: 0.11954 (Simulation time: 0 hr 32 min 27 sec) 
Heartbeat CPU  0 instructions:  463000000 cycles: 3113433085 heartbeat IPC: 0.05640 cumulative IPC: 0.11917 (Simulation time: 0 hr 32 min 37 sec) 
Heartbeat CPU  0 instructions:  464000000 cycles: 3121540132 heartbeat IPC: 0.12335 cumulative IPC: 0.11919 (Simulation time: 0 hr 32 min 41 sec) 
Heartbeat CPU  0 instructions:  465000002 cycles: 3123798525 heartbeat IPC: 0.44279 cumulative IPC: 0.11942 (Simulation time: 0 hr 32 min 43 sec) 
Heartbeat CPU  0 instructions:  466000002 cycles: 3126709024 heartbeat IPC: 0.34358 cumulative IPC: 0.11964 (Simulation time: 0 hr 32 min 45 sec) 
Heartbeat CPU  0 instructions:  467000001 cycles: 3140425945 heartbeat IPC: 0.07290 cumulative IPC: 0.11943 (Simulation time: 0 hr 32 min 51 sec) 
Heartbeat CPU  0 instructions:  468000000 cycles: 3148305851 heartbeat IPC: 0.12690 cumulative IPC: 0.11945 (Simulation time: 0 hr 32 min 55 sec) 
Heartbeat CPU  0 instructions:  469000000 cycles: 3158172511 heartbeat IPC: 0.10135 cumulative IPC: 0.11939 (Simulation time: 0 hr 33 min 2 sec) 
Heartbeat CPU  0 instructions:  470000000 cycles: 3168852811 heartbeat IPC: 0.09363 cumulative IPC: 0.11930 (Simulation time: 0 hr 33 min 8 sec) 
Heartbeat CPU  0 instructions:  471000002 cycles: 3181246258 heartbeat IPC: 0.08069 cumulative IPC: 0.11915 (Simulation time: 0 hr 33 min 16 sec) 
Heartbeat CPU  0 instructions:  472000000 cycles: 3184839425 heartbeat IPC: 0.27831 cumulative IPC: 0.11933 (Simulation time: 0 hr 33 min 19 sec) 
Heartbeat CPU  0 instructions:  473000003 cycles: 3202947606 heartbeat IPC: 0.05522 cumulative IPC: 0.11896 (Simulation time: 0 hr 33 min 29 sec) 
Heartbeat CPU  0 instructions:  474000001 cycles: 3210719932 heartbeat IPC: 0.12866 cumulative IPC: 0.11899 (Simulation time: 0 hr 33 min 34 sec) 
Heartbeat CPU  0 instructions:  475000000 cycles: 3212982713 heartbeat IPC: 0.44193 cumulative IPC: 0.11922 (Simulation time: 0 hr 33 min 35 sec) 
Heartbeat CPU  0 instructions:  476000000 cycles: 3216482506 heartbeat IPC: 0.28573 cumulative IPC: 0.11940 (Simulation time: 0 hr 33 min 38 sec) 
Heartbeat CPU  0 instructions:  477000003 cycles: 3229745574 heartbeat IPC: 0.07540 cumulative IPC: 0.11922 (Simulation time: 0 hr 33 min 43 sec) 
Heartbeat CPU  0 instructions:  478000000 cycles: 3237676889 heartbeat IPC: 0.12608 cumulative IPC: 0.11924 (Simulation time: 0 hr 33 min 47 sec) 
Heartbeat CPU  0 instructions:  479000001 cycles: 3247816184 heartbeat IPC: 0.09863 cumulative IPC: 0.11917 (Simulation time: 0 hr 33 min 54 sec) 
Heartbeat CPU  0 instructions:  480000000 cycles: 3258090979 heartbeat IPC: 0.09733 cumulative IPC: 0.11910 (Simulation time: 0 hr 34 min 1 sec) 
Heartbeat CPU  0 instructions:  481000002 cycles: 3270069876 heartbeat IPC: 0.08348 cumulative IPC: 0.11897 (Simulation time: 0 hr 34 min 9 sec) 
Heartbeat CPU  0 instructions:  482000003 cycles: 3273558315 heartbeat IPC: 0.28666 cumulative IPC: 0.11915 (Simulation time: 0 hr 34 min 12 sec) 
Heartbeat CPU  0 instructions:  483000000 cycles: 3292049391 heartbeat IPC: 0.05408 cumulative IPC: 0.11878 (Simulation time: 0 hr 34 min 23 sec) 
Heartbeat CPU  0 instructions:  484000000 cycles: 3299343097 heartbeat IPC: 0.13710 cumulative IPC: 0.11882 (Simulation time: 0 hr 34 min 27 sec) 
Heartbeat CPU  0 instructions:  485000000 cycles: 3301594498 heartbeat IPC: 0.44417 cumulative IPC: 0.11904 (Simulation time: 0 hr 34 min 28 sec) 
Heartbeat CPU  0 instructions:  486000003 cycles: 3305688730 heartbeat IPC: 0.24425 cumulative IPC: 0.11920 (Simulation time: 0 hr 34 min 31 sec) 
Heartbeat CPU  0 instructions:  487000000 cycles: 3318444721 heartbeat IPC: 0.07839 cumulative IPC: 0.11904 (Simulation time: 0 hr 34 min 37 sec) 
Heartbeat CPU  0 instructions:  488000000 cycles: 3326600292 heartbeat IPC: 0.12262 cumulative IPC: 0.11905 (Simulation time: 0 hr 34 min 40 sec) 
Heartbeat CPU  0 instructions:  489000000 cycles: 3337128437 heartbeat IPC: 0.09498 cumulative IPC: 0.11897 (Simulation time: 0 hr 34 min 47 sec) 
Heartbeat CPU  0 instructions:  490000002 cycles: 3347034080 heartbeat IPC: 0.10095 cumulative IPC: 0.11892 (Simulation time: 0 hr 34 min 53 sec) 
Heartbeat CPU  0 instructions:  491000002 cycles: 3358585159 heartbeat IPC: 0.08657 cumulative IPC: 0.11881 (Simulation time: 0 hr 34 min 59 sec) 
Heartbeat CPU  0 instructions:  492000000 cycles: 3361980131 heartbeat IPC: 0.29455 cumulative IPC: 0.11899 (Simulation time: 0 hr 35 min 2 sec) 
Heartbeat CPU  0 instructions:  493000001 cycles: 3380927481 heartbeat IPC: 0.05278 cumulative IPC: 0.11861 (Simulation time: 0 hr 35 min 13 sec) 
Heartbeat CPU  0 instructions:  494000000 cycles: 3387717965 heartbeat IPC: 0.14726 cumulative IPC: 0.11867 (Simulation time: 0 hr 35 min 16 sec) 
Heartbeat CPU  0 instructions:  495000000 cycles: 3389967326 heartbeat IPC: 0.44457 cumulative IPC: 0.11889 (Simulation time: 0 hr 35 min 18 sec) 
Heartbeat CPU  0 instructions:  496000000 cycles: 3394597106 heartbeat IPC: 0.21599 cumulative IPC: 0.11902 (Simulation time: 0 hr 35 min 21 sec) 
Heartbeat CPU  0 instructions:  497000000 cycles: 3406900259 heartbeat IPC: 0.08128 cumulative IPC: 0.11888 (Simulation time: 0 hr 35 min 27 sec) 
Heartbeat CPU  0 instructions:  498000000 cycles: 3415278230 heartbeat IPC: 0.11936 cumulative IPC: 0.11888 (Simulation time: 0 hr 35 min 30 sec) 
Heartbeat CPU  0 instructions:  499000001 cycles: 3426169612 heartbeat IPC: 0.09182 cumulative IPC: 0.11880 (Simulation time: 0 hr 35 min 37 sec) 
Heartbeat CPU  0 instructions:  500000000 cycles: 3436162834 heartbeat IPC: 0.10007 cumulative IPC: 0.11874 (Simulation time: 0 hr 35 min 43 sec) 
Heartbeat CPU  0 instructions:  501000000 cycles: 3447033245 heartbeat IPC: 0.09199 cumulative IPC: 0.11865 (Simulation time: 0 hr 35 min 50 sec) 
Heartbeat CPU  0 instructions:  502000003 cycles: 3450648062 heartbeat IPC: 0.27664 cumulative IPC: 0.11882 (Simulation time: 0 hr 35 min 53 sec) 
Heartbeat CPU  0 instructions:  503000003 cycles: 3469721090 heartbeat IPC: 0.05243 cumulative IPC: 0.11845 (Simulation time: 0 hr 36 min 3 sec) 
Heartbeat CPU  0 instructions:  504000000 cycles: 3476054666 heartbeat IPC: 0.15789 cumulative IPC: 0.11852 (Simulation time: 0 hr 36 min 7 sec) 
Heartbeat CPU  0 instructions:  505000000 cycles: 3478296379 heartbeat IPC: 0.44609 cumulative IPC: 0.11874 (Simulation time: 0 hr 36 min 8 sec) 
Heartbeat CPU  0 instructions:  506000000 cycles: 3483424091 heartbeat IPC: 0.19502 cumulative IPC: 0.11885 (Simulation time: 0 hr 36 min 11 sec) 
Heartbeat CPU  0 instructions:  507000002 cycles: 3495272034 heartbeat IPC: 0.08440 cumulative IPC: 0.11874 (Simulation time: 0 hr 36 min 17 sec) 
Heartbeat CPU  0 instructions:  508000000 cycles: 3503877633 heartbeat IPC: 0.11620 cumulative IPC: 0.11873 (Simulation time: 0 hr 36 min 21 sec) 
Heartbeat CPU  0 instructions:  509000001 cycles: 3514939284 heartbeat IPC: 0.09040 cumulative IPC: 0.11864 (Simulation time: 0 hr 36 min 28 sec) 
Heartbeat CPU  0 instructions:  510000003 cycles: 3524994002 heartbeat IPC: 0.09946 cumulative IPC: 0.11858 (Simulation time: 0 hr 36 min 34 sec) 
Heartbeat CPU  0 instructions:  511000000 cycles: 3535411876 heartbeat IPC: 0.09599 cumulative IPC: 0.11851 (Simulation time: 0 hr 36 min 40 sec) 
Heartbeat CPU  0 instructions:  512000000 cycles: 3539728671 heartbeat IPC: 0.23165 cumulative IPC: 0.11866 (Simulation time: 0 hr 36 min 43 sec) 
Heartbeat CPU  0 instructions:  513000001 cycles: 3558470639 heartbeat IPC: 0.05336 cumulative IPC: 0.11830 (Simulation time: 0 hr 36 min 53 sec) 
Heartbeat CPU  0 instructions:  514000000 cycles: 3564299989 heartbeat IPC: 0.17155 cumulative IPC: 0.11839 (Simulation time: 0 hr 36 min 57 sec) 
Heartbeat CPU  0 instructions:  515000000 cycles: 3566532149 heartbeat IPC: 0.44800 cumulative IPC: 0.11860 (Simulation time: 0 hr 36 min 58 sec) 
Heartbeat CPU  0 instructions:  516000000 cycles: 3572031162 heartbeat IPC: 0.18185 cumulative IPC: 0.11870 (Simulation time: 0 hr 37 min 2 sec) 
Heartbeat CPU  0 instructions:  517000001 cycles: 3583459401 heartbeat IPC: 0.08750 cumulative IPC: 0.11860 (Simulation time: 0 hr 37 min 7 sec) 
Heartbeat CPU  0 instructions:  518000000 cycles: 3592421251 heartbeat IPC: 0.11158 cumulative IPC: 0.11858 (Simulation time: 0 hr 37 min 11 sec) 
Heartbeat CPU  0 instructions:  519000002 cycles: 3603661054 heartbeat IPC: 0.08897 cumulative IPC: 0.11849 (Simulation time: 0 hr 37 min 18 sec) 
Heartbeat CPU  0 instructions:  520000000 cycles: 3613760662 heartbeat IPC: 0.09901 cumulative IPC: 0.11843 (Simulation time: 0 hr 37 min 24 sec) 
Heartbeat CPU  0 instructions:  521000000 cycles: 3623742549 heartbeat IPC: 0.10018 cumulative IPC: 0.11838 (Simulation time: 0 hr 37 min 30 sec) 
Heartbeat CPU  0 instructions:  522000001 cycles: 3628648881 heartbeat IPC: 0.20382 cumulative IPC: 0.11850 (Simulation time: 0 hr 37 min 34 sec) 
Heartbeat CPU  0 instructions:  523000003 cycles: 3647194708 heartbeat IPC: 0.05392 cumulative IPC: 0.11817 (Simulation time: 0 hr 37 min 43 sec) 
Heartbeat CPU  0 instructions:  524000000 cycles: 3652545362 heartbeat IPC: 0.18689 cumulative IPC: 0.11827 (Simulation time: 0 hr 37 min 46 sec) 
Heartbeat CPU  0 instructions:  525000003 cycles: 3654760736 heartbeat IPC: 0.45139 cumulative IPC: 0.11847 (Simulation time: 0 hr 37 min 48 sec) 
Heartbeat CPU  0 instructions:  526000002 cycles: 3660629367 heartbeat IPC: 0.17040 cumulative IPC: 0.11856 (Simulation time: 0 hr 37 min 51 sec) 
Heartbeat CPU  0 instructions:  527000001 cycles: 3671657632 heartbeat IPC: 0.09068 cumulative IPC: 0.11847 (Simulation time: 0 hr 37 min 56 sec) 
Heartbeat CPU  0 instructions:  528000000 cycles: 3680894348 heartbeat IPC: 0.10826 cumulative IPC: 0.11845 (Simulation time: 0 hr 37 min 59 sec) 
Heartbeat CPU  0 instructions:  529000001 cycles: 3692335426 heartbeat IPC: 0.08740 cumulative IPC: 0.11835 (Simulation time: 0 hr 38 min 6 sec) 
Heartbeat CPU  0 instructions:  530000001 cycles: 3702538554 heartbeat IPC: 0.09801 cumulative IPC: 0.11829 (Simulation time: 0 hr 38 min 12 sec) 
Heartbeat CPU  0 instructions:  531000000 cycles: 3711972100 heartbeat IPC: 0.10600 cumulative IPC: 0.11826 (Simulation time: 0 hr 38 min 17 sec) 
Heartbeat CPU  0 instructions:  532000000 cycles: 3717434476 heartbeat IPC: 0.18307 cumulative IPC: 0.11836 (Simulation time: 0 hr 38 min 21 sec) 
Heartbeat CPU  0 instructions:  533000000 cycles: 3735852057 heartbeat IPC: 0.05430 cumulative IPC: 0.11804 (Simulation time: 0 hr 38 min 31 sec) 
Heartbeat CPU  0 instructions:  534000001 cycles: 3740729679 heartbeat IPC: 0.20502 cumulative IPC: 0.11815 (Simulation time: 0 hr 38 min 33 sec) 
Heartbeat CPU  0 instructions:  535000003 cycles: 3742936379 heartbeat IPC: 0.45317 cumulative IPC: 0.11835 (Simulation time: 0 hr 38 min 35 sec) 
Heartbeat CPU  0 instructions:  536000000 cycles: 3749167522 heartbeat IPC: 0.16048 cumulative IPC: 0.11842 (Simulation time: 0 hr 38 min 38 sec) 
Heartbeat CPU  0 instructions:  537000001 cycles: 3759809935 heartbeat IPC: 0.09396 cumulative IPC: 0.11835 (Simulation time: 0 hr 38 min 43 sec) 
Heartbeat CPU  0 instructions:  538000002 cycles: 3769333304 heartbeat IPC: 0.10500 cumulative IPC: 0.11832 (Simulation time: 0 hr 38 min 47 sec) 
Heartbeat CPU  0 instructions:  539000000 cycles: 3780817658 heartbeat IPC: 0.08707 cumulative IPC: 0.11822 (Simulation time: 0 hr 38 min 53 sec) 
Heartbeat CPU  0 instructions:  540000000 cycles: 3791345861 heartbeat IPC: 0.09498 cumulative IPC: 0.11816 (Simulation time: 0 hr 39 min 0 sec) 
Heartbeat CPU  0 instructions:  541000002 cycles: 3800325077 heartbeat IPC: 0.11137 cumulative IPC: 0.11814 (Simulation time: 0 hr 39 min 5 sec) 
Heartbeat CPU  0 instructions:  542000000 cycles: 3806156053 heartbeat IPC: 0.17150 cumulative IPC: 0.11822 (Simulation time: 0 hr 39 min 9 sec) 
Heartbeat CPU  0 instructions:  543000003 cycles: 3824532274 heartbeat IPC: 0.05442 cumulative IPC: 0.11791 (Simulation time: 0 hr 39 min 18 sec) 
Heartbeat CPU  0 instructions:  544000000 cycles: 3828989434 heartbeat IPC: 0.22436 cumulative IPC: 0.11804 (Simulation time: 0 hr 39 min 21 sec) 
Heartbeat CPU  0 instructions:  545000000 cycles: 3831170527 heartbeat IPC: 0.45849 cumulative IPC: 0.11824 (Simulation time: 0 hr 39 min 22 sec) 
Heartbeat CPU  0 instructions:  546000000 cycles: 3837776630 heartbeat IPC: 0.15138 cumulative IPC: 0.11829 (Simulation time: 0 hr 39 min 26 sec) 
Heartbeat CPU  0 instructions:  547000001 cycles: 3848040019 heartbeat IPC: 0.09743 cumulative IPC: 0.11824 (Simulation time: 0 hr 39 min 30 sec) 
Heartbeat CPU  0 instructions:  548000000 cycles: 3857895160 heartbeat IPC: 0.10147 cumulative IPC: 0.11819 (Simulation time: 0 hr 39 min 34 sec) 
Heartbeat CPU  0 instructions:  549000001 cycles: 3869368448 heartbeat IPC: 0.08716 cumulative IPC: 0.11810 (Simulation time: 0 hr 39 min 41 sec) 
Heartbeat CPU  0 instructions:  550000002 cycles: 3876716746 heartbeat IPC: 0.13609 cumulative IPC: 0.11813 (Simulation time: 0 hr 39 min 46 sec) 
Heartbeat CPU  0 instructions:  551000000 cycles: 3891485016 heartbeat IPC: 0.06771 cumulative IPC: 0.11794 (Simulation time: 0 hr 39 min 53 sec) 
Heartbeat CPU  0 instructions:  552000000 cycles: 3904859430 heartbeat IPC: 0.07477 cumulative IPC: 0.11779 (Simulation time: 0 hr 40 min 0 sec) 
Heartbeat CPU  0 instructions:  553000001 cycles: 3918884449 heartbeat IPC: 0.07130 cumulative IPC: 0.11762 (Simulation time: 0 hr 40 min 8 sec) 
Heartbeat CPU  0 instructions:  554000003 cycles: 3928840147 heartbeat IPC: 0.10045 cumulative IPC: 0.11758 (Simulation time: 0 hr 40 min 14 sec) 
Heartbeat CPU  0 instructions:  555000003 cycles: 3936881269 heartbeat IPC: 0.12436 cumulative IPC: 0.11759 (Simulation time: 0 hr 40 min 19 sec) 
Heartbeat CPU  0 instructions:  556000000 cycles: 3943940714 heartbeat IPC: 0.14165 cumulative IPC: 0.11763 (Simulation time: 0 hr 40 min 23 sec) 
Heartbeat CPU  0 instructions:  557000000 cycles: 3950249708 heartbeat IPC: 0.15850 cumulative IPC: 0.11770 (Simulation time: 0 hr 40 min 27 sec) 
Heartbeat CPU  0 instructions:  558000001 cycles: 3954426192 heartbeat IPC: 0.23944 cumulative IPC: 0.11783 (Simulation time: 0 hr 40 min 29 sec) 
Heartbeat CPU  0 instructions:  559000000 cycles: 3958535206 heartbeat IPC: 0.24337 cumulative IPC: 0.11796 (Simulation time: 0 hr 40 min 32 sec) 
Heartbeat CPU  0 instructions:  560000000 cycles: 3961985353 heartbeat IPC: 0.28984 cumulative IPC: 0.11812 (Simulation time: 0 hr 40 min 35 sec) 
Heartbeat CPU  0 instructions:  561000001 cycles: 3965499980 heartbeat IPC: 0.28453 cumulative IPC: 0.11827 (Simulation time: 0 hr 40 min 38 sec) 
Heartbeat CPU  0 instructions:  562000000 cycles: 3969159264 heartbeat IPC: 0.27328 cumulative IPC: 0.11841 (Simulation time: 0 hr 40 min 41 sec) 
Heartbeat CPU  0 instructions:  563000002 cycles: 3974268785 heartbeat IPC: 0.19571 cumulative IPC: 0.11851 (Simulation time: 0 hr 40 min 45 sec) 
Heartbeat CPU  0 instructions:  564000000 cycles: 3979254057 heartbeat IPC: 0.20059 cumulative IPC: 0.11862 (Simulation time: 0 hr 40 min 49 sec) 
Heartbeat CPU  0 instructions:  565000000 cycles: 3985176327 heartbeat IPC: 0.16885 cumulative IPC: 0.11869 (Simulation time: 0 hr 40 min 53 sec) 
Heartbeat CPU  0 instructions:  566000001 cycles: 3994761319 heartbeat IPC: 0.10433 cumulative IPC: 0.11866 (Simulation time: 0 hr 40 min 58 sec) 
Heartbeat CPU  0 instructions:  567000000 cycles: 4003658473 heartbeat IPC: 0.11240 cumulative IPC: 0.11864 (Simulation time: 0 hr 41 min 3 sec) 
Heartbeat CPU  0 instructions:  568000000 cycles: 4009611805 heartbeat IPC: 0.16797 cumulative IPC: 0.11872 (Simulation time: 0 hr 41 min 7 sec) 
Heartbeat CPU  0 instructions:  569000000 cycles: 4022130024 heartbeat IPC: 0.07988 cumulative IPC: 0.11859 (Simulation time: 0 hr 41 min 15 sec) 
Heartbeat CPU  0 instructions:  570000000 cycles: 4027576016 heartbeat IPC: 0.18362 cumulative IPC: 0.11868 (Simulation time: 0 hr 41 min 18 sec) 
Heartbeat CPU  0 instructions:  571000000 cycles: 4043272656 heartbeat IPC: 0.06371 cumulative IPC: 0.11847 (Simulation time: 0 hr 41 min 27 sec) 
Heartbeat CPU  0 instructions:  572000000 cycles: 4053856622 heartbeat IPC: 0.09448 cumulative IPC: 0.11840 (Simulation time: 0 hr 41 min 32 sec) 
Heartbeat CPU  0 instructions:  573000002 cycles: 4056081782 heartbeat IPC: 0.44941 cumulative IPC: 0.11859 (Simulation time: 0 hr 41 min 34 sec) 
Heartbeat CPU  0 instructions:  574000002 cycles: 4057937326 heartbeat IPC: 0.53893 cumulative IPC: 0.11878 (Simulation time: 0 hr 41 min 35 sec) 
Heartbeat CPU  0 instructions:  575000000 cycles: 4070150557 heartbeat IPC: 0.08188 cumulative IPC: 0.11867 (Simulation time: 0 hr 41 min 40 sec) 
Heartbeat CPU  0 instructions:  576000000 cycles: 4078675374 heartbeat IPC: 0.11730 cumulative IPC: 0.11867 (Simulation time: 0 hr 41 min 44 sec) 
Heartbeat CPU  0 instructions:  577000000 cycles: 4089281168 heartbeat IPC: 0.09429 cumulative IPC: 0.11860 (Simulation time: 0 hr 41 min 50 sec) 
Heartbeat CPU  0 instructions:  578000002 cycles: 4100127806 heartbeat IPC: 0.09219 cumulative IPC: 0.11853 (Simulation time: 0 hr 41 min 55 sec) 
Heartbeat CPU  0 instructions:  579000002 cycles: 4122857556 heartbeat IPC: 0.04400 cumulative IPC: 0.11811 (Simulation time: 0 hr 42 min 8 sec) 
Heartbeat CPU  0 instructions:  580000000 cycles: 4128233287 heartbeat IPC: 0.18602 cumulative IPC: 0.11820 (Simulation time: 0 hr 42 min 11 sec) 
Heartbeat CPU  0 instructions:  581000000 cycles: 4136440448 heartbeat IPC: 0.12184 cumulative IPC: 0.11821 (Simulation time: 0 hr 42 min 17 sec) 
Heartbeat CPU  0 instructions:  582000002 cycles: 4153213092 heartbeat IPC: 0.05962 cumulative IPC: 0.11797 (Simulation time: 0 hr 42 min 25 sec) 
Heartbeat CPU  0 instructions:  583000000 cycles: 4155475133 heartbeat IPC: 0.44208 cumulative IPC: 0.11815 (Simulation time: 0 hr 42 min 26 sec) 
Heartbeat CPU  0 instructions:  584000000 cycles: 4157555189 heartbeat IPC: 0.48076 cumulative IPC: 0.11834 (Simulation time: 0 hr 42 min 28 sec) 
Heartbeat CPU  0 instructions:  585000000 cycles: 4165582711 heartbeat IPC: 0.12457 cumulative IPC: 0.11835 (Simulation time: 0 hr 42 min 32 sec) 
Heartbeat CPU  0 instructions:  586000001 cycles: 4174550760 heartbeat IPC: 0.11151 cumulative IPC: 0.11833 (Simulation time: 0 hr 42 min 36 sec) 
Heartbeat CPU  0 instructions:  587000002 cycles: 4185625187 heartbeat IPC: 0.09030 cumulative IPC: 0.11826 (Simulation time: 0 hr 42 min 41 sec) 
Heartbeat CPU  0 instructions:  588000000 cycles: 4196262157 heartbeat IPC: 0.09401 cumulative IPC: 0.11819 (Simulation time: 0 hr 42 min 47 sec) 
Heartbeat CPU  0 instructions:  589000001 cycles: 4207041325 heartbeat IPC: 0.09277 cumulative IPC: 0.11813 (Simulation time: 0 hr 42 min 53 sec) 
Heartbeat CPU  0 instructions:  590000000 cycles: 4215262026 heartbeat IPC: 0.12164 cumulative IPC: 0.11814 (Simulation time: 0 hr 42 min 58 sec) 
Heartbeat CPU  0 instructions:  591000002 cycles: 4222042264 heartbeat IPC: 0.14749 cumulative IPC: 0.11818 (Simulation time: 0 hr 43 min 2 sec) 
Heartbeat CPU  0 instructions:  592000000 cycles: 4240300321 heartbeat IPC: 0.05477 cumulative IPC: 0.11791 (Simulation time: 0 hr 43 min 12 sec) 
Heartbeat CPU  0 instructions:  593000003 cycles: 4243810078 heartbeat IPC: 0.28492 cumulative IPC: 0.11805 (Simulation time: 0 hr 43 min 14 sec) 
Heartbeat CPU  0 instructions:  594000003 cycles: 4245946258 heartbeat IPC: 0.46813 cumulative IPC: 0.11823 (Simulation time: 0 hr 43 min 15 sec) 
Heartbeat CPU  0 instructions:  595000003 cycles: 4252964639 heartbeat IPC: 0.14248 cumulative IPC: 0.11827 (Simulation time: 0 hr 43 min 18 sec) 
Heartbeat CPU  0 instructions:  596000000 cycles: 4262749951 heartbeat IPC: 0.10219 cumulative IPC: 0.11823 (Simulation time: 0 hr 43 min 23 sec) 
Heartbeat CPU  0 instructions:  597000002 cycles: 4272288137 heartbeat IPC: 0.10484 cumulative IPC: 0.11820 (Simulation time: 0 hr 43 min 27 sec) 
Heartbeat CPU  0 instructions:  598000001 cycles: 4283778826 heartbeat IPC: 0.08703 cumulative IPC: 0.11811 (Simulation time: 0 hr 43 min 33 sec) 
Heartbeat CPU  0 instructions:  599000003 cycles: 4296151602 heartbeat IPC: 0.08082 cumulative IPC: 0.11800 (Simulation time: 0 hr 43 min 40 sec) 
Heartbeat CPU  0 instructions:  600000000 cycles: 4303657552 heartbeat IPC: 0.13323 cumulative IPC: 0.11803 (Simulation time: 0 hr 43 min 45 sec) 
Finished CPU 0 instructions: 500000000 cycles: 4236172091 cumulative IPC: 0.11803 (Simulation time: 0 hr 43 min 45 sec) 

ChampSim completed all CPUs

[ROI Statistics]
Core_0_instructions 500000000
Core_0_cycles 4236172091
Core_0_IPC 0.11803

Core_0_branch_prediction_accuracy 95.09196
Core_0_branch_MPKI 8.72608
Core_0_average_ROB_occupancy_at_mispredict 84.48994

Core_0_L1D_total_access 100961179
Core_0_L1D_total_hit 74433175
Core_0_L1D_total_miss 26528004
Core_0_L1D_loads 75320681
Core_0_L1D_load_hit 52732069
Core_0_L1D_load_miss 22588612
Core_0_L1D_RFOs 25640498
Core_0_L1D_RFO_hit 21701106
Core_0_L1D_RFO_miss 3939392
Core_0_L1D_prefetches 0
Core_0_L1D_prefetch_hit 0
Core_0_L1D_prefetch_miss 0
Core_0_L1D_writebacks 0
Core_0_L1D_writeback_hit 0
Core_0_L1D_writeback_miss 0
Core_0_L1D_prefetch_requested 0
Core_0_L1D_prefetch_dropped 0
Core_0_L1D_prefetch_issued 0
Core_0_L1D_prefetch_filled 0
Core_0_L1D_prefetch_useful 0
Core_0_L1D_prefetch_useless 0
Core_0_L1D_prefetch_late 0
Core_0_L1D_average_miss_latency 649.21548

Core_0_L1D_rq_access 150255508
Core_0_L1D_rq_forward 0
Core_0_L1D_rq_merged 66196089
Core_0_L1D_rq_to_cache 84050922
Core_0_L1D_rq_full 0

Core_0_L1D_wq_access 35310153
Core_0_L1D_wq_forward 8497
Core_0_L1D_wq_merged 63863
Core_0_L1D_wq_to_cache 35246290
Core_0_L1D_wq_full 176042134

Core_0_L1D_pq_access 0
Core_0_L1D_pq_forward 0
Core_0_L1D_pq_merged 0
Core_0_L1D_pq_to_cache 0
Core_0_L1D_pq_full 0

Core_0_L1D_acc_epochs 4153332
Core_0_L1D_acc_level_0 4153332
Core_0_L1D_acc_level_1 0
Core_0_L1D_acc_level_2 0
Core_0_L1D_acc_level_3 0
Core_0_L1D_acc_level_4 0
Core_0_L1D_acc_level_5 0
Core_0_L1D_acc_level_6 0
Core_0_L1D_acc_level_7 0
Core_0_L1D_acc_level_8 0
Core_0_L1D_acc_level_9 0

Core_0_L1I_total_access 105972105
Core_0_L1I_total_hit 105968907
Core_0_L1I_total_miss 3198
Core_0_L1I_loads 105972105
Core_0_L1I_load_hit 105968907
Core_0_L1I_load_miss 3198
Core_0_L1I_RFOs 0
Core_0_L1I_RFO_hit 0
Core_0_L1I_RFO_miss 0
Core_0_L1I_prefetches 0
Core_0_L1I_prefetch_hit 0
Core_0_L1I_prefetch_miss 0
Core_0_L1I_writebacks 0
Core_0_L1I_writeback_hit 0
Core_0_L1I_writeback_miss 0
Core_0_L1I_prefetch_requested 0
Core_0_L1I_prefetch_dropped 0
Core_0_L1I_prefetch_issued 0
Core_0_L1I_prefetch_filled 0
Core_0_L1I_prefetch_useful 0
Core_0_L1I_prefetch_useless 0
Core_0_L1I_prefetch_late 0
Core_0_L1I_average_miss_latency 1088.21169

Core_0_L1I_rq_access 500000000
Core_0_L1I_rq_forward 0
Core_0_L1I_rq_merged 394024705
Core_0_L1I_rq_to_cache 105975295
Core_0_L1I_rq_full 0

Core_0_L1I_wq_access 0
Core_0_L1I_wq_forward 0
Core_0_L1I_wq_merged 0
Core_0_L1I_wq_to_cache 0
Core_0_L1I_wq_full 0

Core_0_L1I_pq_access 0
Core_0_L1I_pq_forward 0
Core_0_L1I_pq_merged 0
Core_0_L1I_pq_to_cache 0
Core_0_L1I_pq_full 0

Core_0_L1I_acc_epochs 4153332
Core_0_L1I_acc_level_0 4153332
Core_0_L1I_acc_level_1 0
Core_0_L1I_acc_level_2 0
Core_0_L1I_acc_level_3 0
Core_0_L1I_acc_level_4 0
Core_0_L1I_acc_level_5 0
Core_0_L1I_acc_level_6 0
Core_0_L1I_acc_level_7 0
Core_0_L1I_acc_level_8 0
Core_0_L1I_acc_level_9 0

Core_0_L2C_total_access 37470466
Core_0_L2C_total_hit 15759615
Core_0_L2C_total_miss 21710851
Core_0_L2C_loads 22590034
Core_0_L2C_load_hit 4316254
Core_0_L2C_load_miss 18273780
Core_0_L2C_RFOs 3939186
Core_0_L2C_RFO_hit 502966
Core_0_L2C_RFO_miss 3436220
Core_0_L2C_prefetches 0
Core_0_L2C_prefetch_hit 0
Core_0_L2C_prefetch_miss 0
Core_0_L2C_writebacks 10941246
Core_0_L2C_writeback_hit 10940395
Core_0_L2C_writeback_miss 851
Core_0_L2C_prefetch_requested 0
Core_0_L2C_prefetch_dropped 0
Core_0_L2C_prefetch_issued 0
Core_0_L2C_prefetch_filled 0
Core_0_L2C_prefetch_useful 0
Core_0_L2C_prefetch_useless 0
Core_0_L2C_prefetch_late 0
Core_0_L2C_average_miss_latency 775.31959

Core_0_L2C_rq_access 26531202
Core_0_L2C_rq_forward 0
Core_0_L2C_rq_merged 0
Core_0_L2C_rq_to_cache 26529220
Core_0_L2C_rq_full 0

Core_0_L2C_wq_access 10941246
Core_0_L2C_wq_forward 1982
Core_0_L2C_wq_merged 0
Core_0_L2C_wq_to_cache 10941246
Core_0_L2C_wq_full 0

Core_0_L2C_pq_access 0
Core_0_L2C_pq_forward 0
Core_0_L2C_pq_merged 0
Core_0_L2C_pq_to_cache 0
Core_0_L2C_pq_full 0

Core_0_L2C_acc_epochs 4153332
Core_0_L2C_acc_level_0 4153332
Core_0_L2C_acc_level_1 0
Core_0_L2C_acc_level_2 0
Core_0_L2C_acc_level_3 0
Core_0_L2C_acc_level_4 0
Core_0_L2C_acc_level_5 0
Core_0_L2C_acc_level_6 0
Core_0_L2C_acc_level_7 0
Core_0_L2C_acc_level_8 0
Core_0_L2C_acc_level_9 0

Core_0_LLC_total_access 29799893
Core_0_LLC_total_hit 14624224
Core_0_LLC_total_miss 15175669
Core_0_LLC_loads 18273708
Core_0_LLC_load_hit 7163107
Core_0_LLC_load_miss 11110601
Core_0_LLC_RFOs 3436202
Core_0_LLC_RFO_hit 951102
Core_0_LLC_RFO_miss 2485100
Core_0_LLC_prefetches 0
Core_0_LLC_prefetch_hit 0
Core_0_LLC_prefetch_miss 0
Core_0_LLC_writebacks 8089983
Core_0_LLC_writeback_hit 6510015
Core_0_LLC_writeback_miss 1579968
Core_0_LLC_prefetch_requested 0
Core_0_LLC_prefetch_dropped 0
Core_0_LLC_prefetch_issued 0
Core_0_LLC_prefetch_filled 0
Core_0_LLC_prefetch_useful 0
Core_0_LLC_prefetch_useless 0
Core_0_LLC_prefetch_late 0
Core_0_LLC_average_miss_latency 1065.87369

Core_0_LLC_rq_access 21710000
Core_0_LLC_rq_forward 0
Core_0_LLC_rq_merged 0
Core_0_LLC_rq_to_cache 21709910
Core_0_LLC_rq_full 0

Core_0_LLC_wq_access 8089983
Core_0_LLC_wq_forward 90
Core_0_LLC_wq_merged 0
Core_0_LLC_wq_to_cache 8089983
Core_0_LLC_wq_full 65804

Core_0_LLC_pq_access 0
Core_0_LLC_pq_forward 0
Core_0_LLC_pq_merged 0
Core_0_LLC_pq_to_cache 0
Core_0_LLC_pq_full 0

Core_0_LLC_acc_epochs 4202791
Core_0_LLC_acc_level_0 4202791
Core_0_LLC_acc_level_1 0
Core_0_LLC_acc_level_2 0
Core_0_LLC_acc_level_3 0
Core_0_LLC_acc_level_4 0
Core_0_LLC_acc_level_5 0
Core_0_LLC_acc_level_6 0
Core_0_LLC_acc_level_7 0
Core_0_LLC_acc_level_8 0
Core_0_LLC_acc_level_9 0

Core_0_major_page_fault 0
Core_0_minor_page_fault 12989

Channel_0_RQ_row_buffer_hit 3830604
Channel_0_RQ_row_buffer_miss 9759859
Channel_0_WQ_row_buffer_hit 1975886
Channel_0_WQ_row_buffer_miss 2475956
Channel_0_WQ_full 474807
Channel_0_dbus_congested 17941497

avg_congested_cycle 182

DRAM_bw_pochs 16811163
DRAM_bw_level_0 6622760
DRAM_bw_level_1 0
DRAM_bw_level_2 0
DRAM_bw_level_3 10188403
