*************************************************
   ChampSim Multicore Out-of-Order Simulator
   Last compiled: Dec 11 2024 17:59:53
*************************************************
parsing config file: /home/functionmain/桌面/Pythia/config/spp_dev2.ini

trace_0 /home/functionmain/桌面/Pythia/traces/450.soplex-247B.champsimtrace.xz
adding L2C_PREFETCHER: SPP_dev2
Initialize SIGNATURE TABLE
ST_SET: 1
ST_WAY: 256
ST_TAG_BIT: 16
ST_TAG_MASK: ffff

Initialize PATTERN TABLE
PT_SET: 512
PT_WAY: 4
SIG_DELTA_BIT: 7
C_SIG_BIT: 4
C_DELTA_BIT: 4

Initialize PREFETCH FILTER
FILTER_SET: 1024
fill_threshold: 90
pf_threshold: 40

Initialize SHIP state
warmup_instructions 100000000
simulation_instructions 500000000
champsim_seed 223
measure_ipc 0
measure_ipc_epoch 1000
measure_dram_bw 1
measure_dram_bw_epoch 256
measure_cache_acc 1
measure_cache_acc_epoch 1024
l1d_perfect 0
l2c_perfect 0
llc_perfect 0
l1d_semi_perfect 0
l2c_semi_perfect 0
llc_semi_perfect 0
semi_perfect_cache_page_buffer_size 64

num_cpus 1
cpu_freq 4000
dram_io_freq 150
page_size 4096
block_size 64
max_read_per_cycle 8
max_fill_per_cycle 1
dram_channels 1
log2_dram_channels 0
dram_ranks 1
dram_banks 8
dram_rows 65536
dram_columns 128
dram_row_size 8
dram_size 4096
dram_pages 1048576

fetch_width 6
decode_width 6
exec_width 4
lq_width 2
sq_width 2
retire_width 4
scheduler_size 128
branch_mispredict_penalty 20
rob_size 256
lq_size 72
sq_size 56
num_instr_destinations_sparc 4
num_instr_destinations 2
num_instr_sources 4

itlb_set 16
itlb_way 8
itlb_rq_size 16
itlb_wq_size 16
itlb_pq_size 0
itlb_mshr_size 8
itlb_latency 1

dtlb_set 16
dtlb_way 4
dtlb_rq_size 16
dtlb_wq_size 16
dtlb_pq_size 0
dtlb_mshr_size 8
dtlb_latency 1

stlb_set 128
stlb_way 12
stlb_rq_size 32
stlb_wq_size 32
stlb_pq_size 0
stlb_mshr_size 16
stlb_latency 8

l1i_size 32
l1i_set 64
l1i_way 8
l1i_rq_size 64
l1i_wq_size 64
l1i_pq_size 8
l1i_mshr_size 8
l1i_latency 1

l1d_size 32
l1d_set 64
l1d_way 8
l1d_rq_size 64
l1d_wq_size 64
l1d_pq_size 8
l1d_mshr_size 16
l1d_latency 4

l2c_size 256
l2c_set 512
l2c_way 8
l2c_rq_size 32
l2c_wq_size 32
l2c_pq_size 32
l2c_mshr_size 32
l2c_latency 10

llc_size 2048
llc_set 2048
llc_way 16
llc_rq_size 32
llc_wq_size 32
llc_pq_size 32
llc_mshr_size 64
llc_latency 20

dram_channel_width 8
dram_wq_size 64
dram_rq_size 64
tRP 15
tRCD 15
tCAS 12.5
dram_dbus_turn_around_time 30
dram_write_high_wm 56
dram_write_low_wm 48
min_dram_writes_per_switch 16
dram_mtps 150
dram_dbus_return_time 213


Heartbeat CPU  0 instructions:    1000002 cycles:     760685 heartbeat IPC: 1.31461 cumulative IPC: 1.31461 (Simulation time: 0 hr 0 min 1 sec) 
Heartbeat CPU  0 instructions:    2000001 cycles:    1404177 heartbeat IPC: 1.55402 cumulative IPC: 1.42432 (Simulation time: 0 hr 0 min 3 sec) 
Heartbeat CPU  0 instructions:    3000001 cycles:    2129371 heartbeat IPC: 1.37894 cumulative IPC: 1.40887 (Simulation time: 0 hr 0 min 5 sec) 
Heartbeat CPU  0 instructions:    4000000 cycles:    2670832 heartbeat IPC: 1.84685 cumulative IPC: 1.49766 (Simulation time: 0 hr 0 min 6 sec) 
Heartbeat CPU  0 instructions:    5000000 cycles:    3577116 heartbeat IPC: 1.10341 cumulative IPC: 1.39777 (Simulation time: 0 hr 0 min 8 sec) 
Heartbeat CPU  0 instructions:    6000001 cycles:    4469636 heartbeat IPC: 1.12042 cumulative IPC: 1.34239 (Simulation time: 0 hr 0 min 9 sec) 
Heartbeat CPU  0 instructions:    7000000 cycles:    5268988 heartbeat IPC: 1.25101 cumulative IPC: 1.32853 (Simulation time: 0 hr 0 min 11 sec) 
Heartbeat CPU  0 instructions:    8000000 cycles:    5961699 heartbeat IPC: 1.44360 cumulative IPC: 1.34190 (Simulation time: 0 hr 0 min 13 sec) 
Heartbeat CPU  0 instructions:    9000001 cycles:    6578298 heartbeat IPC: 1.62180 cumulative IPC: 1.36814 (Simulation time: 0 hr 0 min 14 sec) 
Heartbeat CPU  0 instructions:   10000000 cycles:    7123417 heartbeat IPC: 1.83446 cumulative IPC: 1.40382 (Simulation time: 0 hr 0 min 16 sec) 
Heartbeat CPU  0 instructions:   11000001 cycles:    7717984 heartbeat IPC: 1.68190 cumulative IPC: 1.42524 (Simulation time: 0 hr 0 min 17 sec) 
Heartbeat CPU  0 instructions:   12000000 cycles:    8398035 heartbeat IPC: 1.47048 cumulative IPC: 1.42891 (Simulation time: 0 hr 0 min 19 sec) 
Heartbeat CPU  0 instructions:   13000000 cycles:    9278934 heartbeat IPC: 1.13520 cumulative IPC: 1.40102 (Simulation time: 0 hr 0 min 20 sec) 
Heartbeat CPU  0 instructions:   14000002 cycles:   10027289 heartbeat IPC: 1.33627 cumulative IPC: 1.39619 (Simulation time: 0 hr 0 min 21 sec) 
Heartbeat CPU  0 instructions:   15000000 cycles:   10632383 heartbeat IPC: 1.65263 cumulative IPC: 1.41078 (Simulation time: 0 hr 0 min 22 sec) 
Heartbeat CPU  0 instructions:   16000000 cycles:   11161880 heartbeat IPC: 1.88858 cumulative IPC: 1.43345 (Simulation time: 0 hr 0 min 24 sec) 
Heartbeat CPU  0 instructions:   17000000 cycles:   11974073 heartbeat IPC: 1.23123 cumulative IPC: 1.41973 (Simulation time: 0 hr 0 min 25 sec) 
Heartbeat CPU  0 instructions:   18000001 cycles:   12583060 heartbeat IPC: 1.64207 cumulative IPC: 1.43049 (Simulation time: 0 hr 0 min 27 sec) 
Heartbeat CPU  0 instructions:   19000001 cycles:   13121688 heartbeat IPC: 1.85657 cumulative IPC: 1.44798 (Simulation time: 0 hr 0 min 28 sec) 
Heartbeat CPU  0 instructions:   20000000 cycles:   13720660 heartbeat IPC: 1.66953 cumulative IPC: 1.45766 (Simulation time: 0 hr 0 min 30 sec) 
Heartbeat CPU  0 instructions:   21000001 cycles:   14382014 heartbeat IPC: 1.51205 cumulative IPC: 1.46016 (Simulation time: 0 hr 0 min 31 sec) 
Heartbeat CPU  0 instructions:   22000003 cycles:   15260961 heartbeat IPC: 1.13773 cumulative IPC: 1.44159 (Simulation time: 0 hr 0 min 32 sec) 
Heartbeat CPU  0 instructions:   23000001 cycles:   16027836 heartbeat IPC: 1.30399 cumulative IPC: 1.43500 (Simulation time: 0 hr 0 min 34 sec) 
Heartbeat CPU  0 instructions:   24000000 cycles:   16629716 heartbeat IPC: 1.66146 cumulative IPC: 1.44320 (Simulation time: 0 hr 0 min 35 sec) 
Heartbeat CPU  0 instructions:   25000000 cycles:   17173480 heartbeat IPC: 1.83903 cumulative IPC: 1.45573 (Simulation time: 0 hr 0 min 36 sec) 
Heartbeat CPU  0 instructions:   26000001 cycles:   17973375 heartbeat IPC: 1.25017 cumulative IPC: 1.44658 (Simulation time: 0 hr 0 min 38 sec) 
Heartbeat CPU  0 instructions:   27000003 cycles:   18550738 heartbeat IPC: 1.73202 cumulative IPC: 1.45547 (Simulation time: 0 hr 0 min 40 sec) 
Heartbeat CPU  0 instructions:   28000000 cycles:   19107057 heartbeat IPC: 1.79752 cumulative IPC: 1.46543 (Simulation time: 0 hr 0 min 41 sec) 
Heartbeat CPU  0 instructions:   29000002 cycles:   19663490 heartbeat IPC: 1.79717 cumulative IPC: 1.47481 (Simulation time: 0 hr 0 min 42 sec) 
Heartbeat CPU  0 instructions:   30000001 cycles:   20254849 heartbeat IPC: 1.69102 cumulative IPC: 1.48113 (Simulation time: 0 hr 0 min 44 sec) 
Heartbeat CPU  0 instructions:   31000002 cycles:   21123978 heartbeat IPC: 1.15058 cumulative IPC: 1.46753 (Simulation time: 0 hr 0 min 45 sec) 
Heartbeat CPU  0 instructions:   32000000 cycles:   21944856 heartbeat IPC: 1.21821 cumulative IPC: 1.45820 (Simulation time: 0 hr 0 min 46 sec) 
Heartbeat CPU  0 instructions:   33000000 cycles:   22544474 heartbeat IPC: 1.66773 cumulative IPC: 1.46377 (Simulation time: 0 hr 0 min 47 sec) 
Heartbeat CPU  0 instructions:   34000000 cycles:   23164909 heartbeat IPC: 1.61177 cumulative IPC: 1.46774 (Simulation time: 0 hr 0 min 49 sec) 
Heartbeat CPU  0 instructions:   35000000 cycles:   23890194 heartbeat IPC: 1.37877 cumulative IPC: 1.46504 (Simulation time: 0 hr 0 min 50 sec) 
Heartbeat CPU  0 instructions:   36000000 cycles:   24498939 heartbeat IPC: 1.64272 cumulative IPC: 1.46945 (Simulation time: 0 hr 0 min 52 sec) 
Heartbeat CPU  0 instructions:   37000002 cycles:   25037972 heartbeat IPC: 1.85518 cumulative IPC: 1.47776 (Simulation time: 0 hr 0 min 53 sec) 
Heartbeat CPU  0 instructions:   38000002 cycles:   25604558 heartbeat IPC: 1.76496 cumulative IPC: 1.48411 (Simulation time: 0 hr 0 min 55 sec) 
Heartbeat CPU  0 instructions:   39000000 cycles:   26189035 heartbeat IPC: 1.71093 cumulative IPC: 1.48917 (Simulation time: 0 hr 0 min 57 sec) 
Heartbeat CPU  0 instructions:   40000000 cycles:   26966168 heartbeat IPC: 1.28678 cumulative IPC: 1.48334 (Simulation time: 0 hr 0 min 58 sec) 
Heartbeat CPU  0 instructions:   41000001 cycles:   27832313 heartbeat IPC: 1.15454 cumulative IPC: 1.47311 (Simulation time: 0 hr 0 min 59 sec) 
Heartbeat CPU  0 instructions:   42000001 cycles:   28483618 heartbeat IPC: 1.53538 cumulative IPC: 1.47453 (Simulation time: 0 hr 1 min 0 sec) 
Heartbeat CPU  0 instructions:   43000000 cycles:   29127309 heartbeat IPC: 1.55354 cumulative IPC: 1.47628 (Simulation time: 0 hr 1 min 1 sec) 
Heartbeat CPU  0 instructions:   44000000 cycles:   29753243 heartbeat IPC: 1.59761 cumulative IPC: 1.47883 (Simulation time: 0 hr 1 min 3 sec) 
Heartbeat CPU  0 instructions:   45000000 cycles:   30487191 heartbeat IPC: 1.36249 cumulative IPC: 1.47603 (Simulation time: 0 hr 1 min 5 sec) 
Heartbeat CPU  0 instructions:   46000001 cycles:   31026087 heartbeat IPC: 1.85565 cumulative IPC: 1.48262 (Simulation time: 0 hr 1 min 6 sec) 
Heartbeat CPU  0 instructions:   47000000 cycles:   31585326 heartbeat IPC: 1.78814 cumulative IPC: 1.48803 (Simulation time: 0 hr 1 min 8 sec) 
Heartbeat CPU  0 instructions:   48000000 cycles:   32174415 heartbeat IPC: 1.69754 cumulative IPC: 1.49187 (Simulation time: 0 hr 1 min 9 sec) 
Heartbeat CPU  0 instructions:   49000001 cycles:   32916755 heartbeat IPC: 1.34709 cumulative IPC: 1.48860 (Simulation time: 0 hr 1 min 10 sec) 
Heartbeat CPU  0 instructions:   50000001 cycles:   33784995 heartbeat IPC: 1.15176 cumulative IPC: 1.47995 (Simulation time: 0 hr 1 min 11 sec) 
Heartbeat CPU  0 instructions:   51000003 cycles:   34479092 heartbeat IPC: 1.44072 cumulative IPC: 1.47916 (Simulation time: 0 hr 1 min 13 sec) 
Heartbeat CPU  0 instructions:   52000000 cycles:   35089541 heartbeat IPC: 1.63813 cumulative IPC: 1.48192 (Simulation time: 0 hr 1 min 14 sec) 
Heartbeat CPU  0 instructions:   53000000 cycles:   35669080 heartbeat IPC: 1.72551 cumulative IPC: 1.48588 (Simulation time: 0 hr 1 min 15 sec) 
Heartbeat CPU  0 instructions:   54000002 cycles:   36437106 heartbeat IPC: 1.30204 cumulative IPC: 1.48201 (Simulation time: 0 hr 1 min 17 sec) 
Heartbeat CPU  0 instructions:   55000001 cycles:   37012703 heartbeat IPC: 1.73732 cumulative IPC: 1.48598 (Simulation time: 0 hr 1 min 19 sec) 
Heartbeat CPU  0 instructions:   56000000 cycles:   37565538 heartbeat IPC: 1.80886 cumulative IPC: 1.49073 (Simulation time: 0 hr 1 min 20 sec) 
Heartbeat CPU  0 instructions:   57000002 cycles:   38156466 heartbeat IPC: 1.69226 cumulative IPC: 1.49385 (Simulation time: 0 hr 1 min 22 sec) 
Heartbeat CPU  0 instructions:   58000001 cycles:   38891976 heartbeat IPC: 1.35960 cumulative IPC: 1.49131 (Simulation time: 0 hr 1 min 23 sec) 
Heartbeat CPU  0 instructions:   59000001 cycles:   39762408 heartbeat IPC: 1.14885 cumulative IPC: 1.48381 (Simulation time: 0 hr 1 min 24 sec) 
Heartbeat CPU  0 instructions:   60000000 cycles:   40481879 heartbeat IPC: 1.38991 cumulative IPC: 1.48214 (Simulation time: 0 hr 1 min 25 sec) 
Heartbeat CPU  0 instructions:   61000003 cycles:   41101146 heartbeat IPC: 1.61482 cumulative IPC: 1.48414 (Simulation time: 0 hr 1 min 26 sec) 
Heartbeat CPU  0 instructions:   62000001 cycles:   41671732 heartbeat IPC: 1.75258 cumulative IPC: 1.48782 (Simulation time: 0 hr 1 min 28 sec) 
Heartbeat CPU  0 instructions:   63000000 cycles:   42465856 heartbeat IPC: 1.25925 cumulative IPC: 1.48354 (Simulation time: 0 hr 1 min 30 sec) 
Heartbeat CPU  0 instructions:   64000000 cycles:   43058034 heartbeat IPC: 1.68868 cumulative IPC: 1.48637 (Simulation time: 0 hr 1 min 31 sec) 
Heartbeat CPU  0 instructions:   65000003 cycles:   43607900 heartbeat IPC: 1.81863 cumulative IPC: 1.49056 (Simulation time: 0 hr 1 min 33 sec) 
Heartbeat CPU  0 instructions:   66000002 cycles:   44198132 heartbeat IPC: 1.69425 cumulative IPC: 1.49328 (Simulation time: 0 hr 1 min 34 sec) 
Heartbeat CPU  0 instructions:   67000000 cycles:   44889247 heartbeat IPC: 1.44693 cumulative IPC: 1.49256 (Simulation time: 0 hr 1 min 36 sec) 
Heartbeat CPU  0 instructions:   68000000 cycles:   45765190 heartbeat IPC: 1.14163 cumulative IPC: 1.48585 (Simulation time: 0 hr 1 min 37 sec) 
Heartbeat CPU  0 instructions:   69000001 cycles:   46516941 heartbeat IPC: 1.33023 cumulative IPC: 1.48333 (Simulation time: 0 hr 1 min 38 sec) 
Heartbeat CPU  0 instructions:   70000000 cycles:   47134954 heartbeat IPC: 1.61809 cumulative IPC: 1.48510 (Simulation time: 0 hr 1 min 39 sec) 
Heartbeat CPU  0 instructions:   71000002 cycles:   47669294 heartbeat IPC: 1.87147 cumulative IPC: 1.48943 (Simulation time: 0 hr 1 min 41 sec) 
Heartbeat CPU  0 instructions:   72000000 cycles:   48476893 heartbeat IPC: 1.23824 cumulative IPC: 1.48524 (Simulation time: 0 hr 1 min 42 sec) 
Heartbeat CPU  0 instructions:   73000001 cycles:   49076971 heartbeat IPC: 1.66645 cumulative IPC: 1.48746 (Simulation time: 0 hr 1 min 44 sec) 
Heartbeat CPU  0 instructions:   74000002 cycles:   49620366 heartbeat IPC: 1.84028 cumulative IPC: 1.49132 (Simulation time: 0 hr 1 min 46 sec) 
Heartbeat CPU  0 instructions:   75000003 cycles:   50219341 heartbeat IPC: 1.66952 cumulative IPC: 1.49345 (Simulation time: 0 hr 1 min 47 sec) 
Heartbeat CPU  0 instructions:   76000000 cycles:   50876174 heartbeat IPC: 1.52245 cumulative IPC: 1.49382 (Simulation time: 0 hr 1 min 49 sec) 
Heartbeat CPU  0 instructions:   77000001 cycles:   51749308 heartbeat IPC: 1.14530 cumulative IPC: 1.48794 (Simulation time: 0 hr 1 min 50 sec) 
Heartbeat CPU  0 instructions:   78000001 cycles:   52523128 heartbeat IPC: 1.29229 cumulative IPC: 1.48506 (Simulation time: 0 hr 1 min 51 sec) 
Heartbeat CPU  0 instructions:   79000003 cycles:   53139464 heartbeat IPC: 1.62249 cumulative IPC: 1.48665 (Simulation time: 0 hr 1 min 52 sec) 
Heartbeat CPU  0 instructions:   80000000 cycles:   53707284 heartbeat IPC: 1.76112 cumulative IPC: 1.48956 (Simulation time: 0 hr 1 min 53 sec) 
Heartbeat CPU  0 instructions:   81000001 cycles:   54495655 heartbeat IPC: 1.26844 cumulative IPC: 1.48636 (Simulation time: 0 hr 1 min 55 sec) 
Heartbeat CPU  0 instructions:   82000002 cycles:   55110885 heartbeat IPC: 1.62541 cumulative IPC: 1.48791 (Simulation time: 0 hr 1 min 57 sec) 
Heartbeat CPU  0 instructions:   83000003 cycles:   55671238 heartbeat IPC: 1.78459 cumulative IPC: 1.49090 (Simulation time: 0 hr 1 min 58 sec) 
Heartbeat CPU  0 instructions:   84000000 cycles:   56225531 heartbeat IPC: 1.80409 cumulative IPC: 1.49398 (Simulation time: 0 hr 2 min 0 sec) 
Heartbeat CPU  0 instructions:   85000001 cycles:   56816408 heartbeat IPC: 1.69240 cumulative IPC: 1.49605 (Simulation time: 0 hr 2 min 1 sec) 
Heartbeat CPU  0 instructions:   86000000 cycles:   57689157 heartbeat IPC: 1.14580 cumulative IPC: 1.49075 (Simulation time: 0 hr 2 min 2 sec) 
Heartbeat CPU  0 instructions:   87000000 cycles:   58516105 heartbeat IPC: 1.20927 cumulative IPC: 1.48677 (Simulation time: 0 hr 2 min 3 sec) 
Heartbeat CPU  0 instructions:   88000000 cycles:   59135619 heartbeat IPC: 1.61417 cumulative IPC: 1.48810 (Simulation time: 0 hr 2 min 4 sec) 
Heartbeat CPU  0 instructions:   89000003 cycles:   59779905 heartbeat IPC: 1.55211 cumulative IPC: 1.48879 (Simulation time: 0 hr 2 min 6 sec) 
Heartbeat CPU  0 instructions:   90000003 cycles:   60475263 heartbeat IPC: 1.43811 cumulative IPC: 1.48821 (Simulation time: 0 hr 2 min 8 sec) 
Heartbeat CPU  0 instructions:   91000001 cycles:   61152307 heartbeat IPC: 1.47701 cumulative IPC: 1.48809 (Simulation time: 0 hr 2 min 9 sec) 
Heartbeat CPU  0 instructions:   92000000 cycles:   61724025 heartbeat IPC: 1.74911 cumulative IPC: 1.49051 (Simulation time: 0 hr 2 min 11 sec) 
Heartbeat CPU  0 instructions:   93000003 cycles:   62269690 heartbeat IPC: 1.83263 cumulative IPC: 1.49350 (Simulation time: 0 hr 2 min 12 sec) 
Heartbeat CPU  0 instructions:   94000002 cycles:   62861777 heartbeat IPC: 1.68894 cumulative IPC: 1.49534 (Simulation time: 0 hr 2 min 14 sec) 
Heartbeat CPU  0 instructions:   95000003 cycles:   63699427 heartbeat IPC: 1.19382 cumulative IPC: 1.49138 (Simulation time: 0 hr 2 min 15 sec) 
Heartbeat CPU  0 instructions:   96000000 cycles:   64547250 heartbeat IPC: 1.17949 cumulative IPC: 1.48728 (Simulation time: 0 hr 2 min 16 sec) 
Heartbeat CPU  0 instructions:   97000002 cycles:   65182457 heartbeat IPC: 1.57429 cumulative IPC: 1.48813 (Simulation time: 0 hr 2 min 17 sec) 
Heartbeat CPU  0 instructions:   98000003 cycles:   65832211 heartbeat IPC: 1.53905 cumulative IPC: 1.48863 (Simulation time: 0 hr 2 min 19 sec) 
Heartbeat CPU  0 instructions:   99000002 cycles:   66485667 heartbeat IPC: 1.53032 cumulative IPC: 1.48904 (Simulation time: 0 hr 2 min 20 sec) 
Heartbeat CPU  0 instructions:  100000000 cycles:   67070489 heartbeat IPC: 1.70992 cumulative IPC: 1.49097 (Simulation time: 0 hr 2 min 22 sec) 

Warmup complete CPU  0 instructions:  100000002 cycles:   67070491 (Simulation time: 0 hr 2 min 22 sec) 

Heartbeat CPU  0 instructions:  101000001 cycles:   84017024 heartbeat IPC: 0.05901 cumulative IPC: 0.05901 (Simulation time: 0 hr 2 min 29 sec) 
Heartbeat CPU  0 instructions:  102000001 cycles:   97846902 heartbeat IPC: 0.07231 cumulative IPC: 0.06498 (Simulation time: 0 hr 2 min 37 sec) 
Heartbeat CPU  0 instructions:  103000001 cycles:  113165101 heartbeat IPC: 0.06528 cumulative IPC: 0.06508 (Simulation time: 0 hr 2 min 47 sec) 
Heartbeat CPU  0 instructions:  104000000 cycles:  123071247 heartbeat IPC: 0.10095 cumulative IPC: 0.07143 (Simulation time: 0 hr 2 min 52 sec) 
Heartbeat CPU  0 instructions:  105000003 cycles:  132079274 heartbeat IPC: 0.11101 cumulative IPC: 0.07691 (Simulation time: 0 hr 2 min 57 sec) 
Heartbeat CPU  0 instructions:  106000001 cycles:  140381273 heartbeat IPC: 0.12045 cumulative IPC: 0.08184 (Simulation time: 0 hr 3 min 2 sec) 
Heartbeat CPU  0 instructions:  107000003 cycles:  147166028 heartbeat IPC: 0.14739 cumulative IPC: 0.08740 (Simulation time: 0 hr 3 min 6 sec) 
Heartbeat CPU  0 instructions:  108000000 cycles:  151429479 heartbeat IPC: 0.23455 cumulative IPC: 0.09483 (Simulation time: 0 hr 3 min 9 sec) 
Heartbeat CPU  0 instructions:  109000000 cycles:  155533863 heartbeat IPC: 0.24364 cumulative IPC: 0.10174 (Simulation time: 0 hr 3 min 12 sec) 
Heartbeat CPU  0 instructions:  110000001 cycles:  158834800 heartbeat IPC: 0.30294 cumulative IPC: 0.10897 (Simulation time: 0 hr 3 min 14 sec) 
Heartbeat CPU  0 instructions:  111000003 cycles:  162355727 heartbeat IPC: 0.28402 cumulative IPC: 0.11544 (Simulation time: 0 hr 3 min 17 sec) 
Heartbeat CPU  0 instructions:  112000000 cycles:  165993517 heartbeat IPC: 0.27489 cumulative IPC: 0.12131 (Simulation time: 0 hr 3 min 21 sec) 
Heartbeat CPU  0 instructions:  113000002 cycles:  171368555 heartbeat IPC: 0.18605 cumulative IPC: 0.12464 (Simulation time: 0 hr 3 min 25 sec) 
Heartbeat CPU  0 instructions:  114000000 cycles:  178510675 heartbeat IPC: 0.14001 cumulative IPC: 0.12563 (Simulation time: 0 hr 3 min 30 sec) 
Heartbeat CPU  0 instructions:  115000000 cycles:  188372308 heartbeat IPC: 0.10140 cumulative IPC: 0.12366 (Simulation time: 0 hr 3 min 36 sec) 
Heartbeat CPU  0 instructions:  116000000 cycles:  195757151 heartbeat IPC: 0.13541 cumulative IPC: 0.12433 (Simulation time: 0 hr 3 min 41 sec) 
Heartbeat CPU  0 instructions:  117000000 cycles:  203941277 heartbeat IPC: 0.12219 cumulative IPC: 0.12420 (Simulation time: 0 hr 3 min 46 sec) 
Heartbeat CPU  0 instructions:  118000002 cycles:  210265566 heartbeat IPC: 0.15812 cumulative IPC: 0.12570 (Simulation time: 0 hr 3 min 51 sec) 
Heartbeat CPU  0 instructions:  119000000 cycles:  223294918 heartbeat IPC: 0.07675 cumulative IPC: 0.12162 (Simulation time: 0 hr 3 min 59 sec) 
Heartbeat CPU  0 instructions:  120000000 cycles:  229153381 heartbeat IPC: 0.17069 cumulative IPC: 0.12339 (Simulation time: 0 hr 4 min 3 sec) 
Heartbeat CPU  0 instructions:  121000001 cycles:  248848133 heartbeat IPC: 0.05077 cumulative IPC: 0.11553 (Simulation time: 0 hr 4 min 14 sec) 
Heartbeat CPU  0 instructions:  122000001 cycles:  261607684 heartbeat IPC: 0.07837 cumulative IPC: 0.11309 (Simulation time: 0 hr 4 min 21 sec) 
Heartbeat CPU  0 instructions:  123000000 cycles:  263765607 heartbeat IPC: 0.46341 cumulative IPC: 0.11693 (Simulation time: 0 hr 4 min 22 sec) 
Heartbeat CPU  0 instructions:  124000000 cycles:  265662211 heartbeat IPC: 0.52726 cumulative IPC: 0.12085 (Simulation time: 0 hr 4 min 24 sec) 
Heartbeat CPU  0 instructions:  125000000 cycles:  281832351 heartbeat IPC: 0.06184 cumulative IPC: 0.11641 (Simulation time: 0 hr 4 min 31 sec) 
Heartbeat CPU  0 instructions:  126000001 cycles:  291824658 heartbeat IPC: 0.10008 cumulative IPC: 0.11568 (Simulation time: 0 hr 4 min 36 sec) 
Heartbeat CPU  0 instructions:  127000002 cycles:  304201408 heartbeat IPC: 0.08080 cumulative IPC: 0.11386 (Simulation time: 0 hr 4 min 44 sec) 
Heartbeat CPU  0 instructions:  128000000 cycles:  312081689 heartbeat IPC: 0.12690 cumulative IPC: 0.11428 (Simulation time: 0 hr 4 min 49 sec) 
Heartbeat CPU  0 instructions:  129000000 cycles:  320668475 heartbeat IPC: 0.11646 cumulative IPC: 0.11435 (Simulation time: 0 hr 4 min 54 sec) 
Heartbeat CPU  0 instructions:  130000001 cycles:  344948151 heartbeat IPC: 0.04119 cumulative IPC: 0.10796 (Simulation time: 0 hr 5 min 7 sec) 
Heartbeat CPU  0 instructions:  131000000 cycles:  347541373 heartbeat IPC: 0.38562 cumulative IPC: 0.11053 (Simulation time: 0 hr 5 min 9 sec) 
Heartbeat CPU  0 instructions:  132000000 cycles:  349606574 heartbeat IPC: 0.48421 cumulative IPC: 0.11326 (Simulation time: 0 hr 5 min 11 sec) 
Heartbeat CPU  0 instructions:  133000000 cycles:  356180002 heartbeat IPC: 0.15213 cumulative IPC: 0.11414 (Simulation time: 0 hr 5 min 14 sec) 
Heartbeat CPU  0 instructions:  134000000 cycles:  372907147 heartbeat IPC: 0.05978 cumulative IPC: 0.11117 (Simulation time: 0 hr 5 min 22 sec) 
Heartbeat CPU  0 instructions:  135000002 cycles:  380975124 heartbeat IPC: 0.12395 cumulative IPC: 0.11150 (Simulation time: 0 hr 5 min 26 sec) 
Heartbeat CPU  0 instructions:  136000000 cycles:  392103246 heartbeat IPC: 0.08986 cumulative IPC: 0.11076 (Simulation time: 0 hr 5 min 34 sec) 
Heartbeat CPU  0 instructions:  137000000 cycles:  399937669 heartbeat IPC: 0.12764 cumulative IPC: 0.11116 (Simulation time: 0 hr 5 min 39 sec) 
Heartbeat CPU  0 instructions:  138000002 cycles:  412627400 heartbeat IPC: 0.07880 cumulative IPC: 0.10997 (Simulation time: 0 hr 5 min 47 sec) 
Heartbeat CPU  0 instructions:  139000000 cycles:  432240681 heartbeat IPC: 0.05099 cumulative IPC: 0.10680 (Simulation time: 0 hr 5 min 57 sec) 
Heartbeat CPU  0 instructions:  140000000 cycles:  434372931 heartbeat IPC: 0.46899 cumulative IPC: 0.10890 (Simulation time: 0 hr 5 min 58 sec) 
Heartbeat CPU  0 instructions:  141000000 cycles:  436353278 heartbeat IPC: 0.50496 cumulative IPC: 0.11103 (Simulation time: 0 hr 6 min 0 sec) 
Heartbeat CPU  0 instructions:  142000000 cycles:  446990514 heartbeat IPC: 0.09401 cumulative IPC: 0.11055 (Simulation time: 0 hr 6 min 5 sec) 
Heartbeat CPU  0 instructions:  143000000 cycles:  459720375 heartbeat IPC: 0.07856 cumulative IPC: 0.10951 (Simulation time: 0 hr 6 min 11 sec) 
Heartbeat CPU  0 instructions:  144000000 cycles:  468036641 heartbeat IPC: 0.12025 cumulative IPC: 0.10973 (Simulation time: 0 hr 6 min 16 sec) 
Heartbeat CPU  0 instructions:  145000002 cycles:  480210916 heartbeat IPC: 0.08214 cumulative IPC: 0.10892 (Simulation time: 0 hr 6 min 24 sec) 
Heartbeat CPU  0 instructions:  146000003 cycles:  486537506 heartbeat IPC: 0.15806 cumulative IPC: 0.10966 (Simulation time: 0 hr 6 min 28 sec) 
Heartbeat CPU  0 instructions:  147000000 cycles:  504697897 heartbeat IPC: 0.05506 cumulative IPC: 0.10740 (Simulation time: 0 hr 6 min 38 sec) 
Heartbeat CPU  0 instructions:  148000000 cycles:  519131471 heartbeat IPC: 0.06928 cumulative IPC: 0.10618 (Simulation time: 0 hr 6 min 46 sec) 
Heartbeat CPU  0 instructions:  149000000 cycles:  521270659 heartbeat IPC: 0.46747 cumulative IPC: 0.10788 (Simulation time: 0 hr 6 min 48 sec) 
Heartbeat CPU  0 instructions:  150000002 cycles:  523211626 heartbeat IPC: 0.51521 cumulative IPC: 0.10962 (Simulation time: 0 hr 6 min 49 sec) 
Heartbeat CPU  0 instructions:  151000000 cycles:  537549729 heartbeat IPC: 0.06974 cumulative IPC: 0.10840 (Simulation time: 0 hr 6 min 55 sec) 
Heartbeat CPU  0 instructions:  152000000 cycles:  547885441 heartbeat IPC: 0.09675 cumulative IPC: 0.10815 (Simulation time: 0 hr 7 min 1 sec) 
Heartbeat CPU  0 instructions:  153000000 cycles:  555239872 heartbeat IPC: 0.13597 cumulative IPC: 0.10857 (Simulation time: 0 hr 7 min 6 sec) 
Heartbeat CPU  0 instructions:  154000002 cycles:  568884287 heartbeat IPC: 0.07329 cumulative IPC: 0.10761 (Simulation time: 0 hr 7 min 13 sec) 
Heartbeat CPU  0 instructions:  155000002 cycles:  573244417 heartbeat IPC: 0.22935 cumulative IPC: 0.10866 (Simulation time: 0 hr 7 min 17 sec) 
Heartbeat CPU  0 instructions:  156000000 cycles:  595713994 heartbeat IPC: 0.04450 cumulative IPC: 0.10593 (Simulation time: 0 hr 7 min 29 sec) 
Heartbeat CPU  0 instructions:  157000000 cycles:  605943023 heartbeat IPC: 0.09776 cumulative IPC: 0.10578 (Simulation time: 0 hr 7 min 34 sec) 
Heartbeat CPU  0 instructions:  158000003 cycles:  608090409 heartbeat IPC: 0.46568 cumulative IPC: 0.10720 (Simulation time: 0 hr 7 min 36 sec) 
Heartbeat CPU  0 instructions:  159000000 cycles:  610323780 heartbeat IPC: 0.44775 cumulative IPC: 0.10860 (Simulation time: 0 hr 7 min 38 sec) 
Heartbeat CPU  0 instructions:  160000000 cycles:  628672631 heartbeat IPC: 0.05450 cumulative IPC: 0.10684 (Simulation time: 0 hr 7 min 45 sec) 
Heartbeat CPU  0 instructions:  161000003 cycles:  637210794 heartbeat IPC: 0.11712 cumulative IPC: 0.10699 (Simulation time: 0 hr 7 min 51 sec) 
Heartbeat CPU  0 instructions:  162000001 cycles:  648740798 heartbeat IPC: 0.08673 cumulative IPC: 0.10659 (Simulation time: 0 hr 7 min 59 sec) 
Heartbeat CPU  0 instructions:  163000000 cycles:  657013236 heartbeat IPC: 0.12088 cumulative IPC: 0.10679 (Simulation time: 0 hr 8 min 3 sec) 
Heartbeat CPU  0 instructions:  164000000 cycles:  665576909 heartbeat IPC: 0.11677 cumulative IPC: 0.10693 (Simulation time: 0 hr 8 min 9 sec) 
Heartbeat CPU  0 instructions:  165000001 cycles:  689732897 heartbeat IPC: 0.04140 cumulative IPC: 0.10439 (Simulation time: 0 hr 8 min 22 sec) 
Heartbeat CPU  0 instructions:  166000000 cycles:  692565836 heartbeat IPC: 0.35299 cumulative IPC: 0.10552 (Simulation time: 0 hr 8 min 24 sec) 
Heartbeat CPU  0 instructions:  167000001 cycles:  694624022 heartbeat IPC: 0.48587 cumulative IPC: 0.10676 (Simulation time: 0 hr 8 min 25 sec) 
Heartbeat CPU  0 instructions:  168000000 cycles:  701005795 heartbeat IPC: 0.15670 cumulative IPC: 0.10727 (Simulation time: 0 hr 8 min 29 sec) 
Heartbeat CPU  0 instructions:  169000001 cycles:  717789410 heartbeat IPC: 0.05958 cumulative IPC: 0.10604 (Simulation time: 0 hr 8 min 36 sec) 
Heartbeat CPU  0 instructions:  170000002 cycles:  725928010 heartbeat IPC: 0.12287 cumulative IPC: 0.10624 (Simulation time: 0 hr 8 min 41 sec) 
Heartbeat CPU  0 instructions:  171000000 cycles:  737003980 heartbeat IPC: 0.09029 cumulative IPC: 0.10598 (Simulation time: 0 hr 8 min 49 sec) 
Heartbeat CPU  0 instructions:  172000000 cycles:  744713240 heartbeat IPC: 0.12971 cumulative IPC: 0.10625 (Simulation time: 0 hr 8 min 54 sec) 
Heartbeat CPU  0 instructions:  173000000 cycles:  757283439 heartbeat IPC: 0.07955 cumulative IPC: 0.10576 (Simulation time: 0 hr 9 min 1 sec) 
Heartbeat CPU  0 instructions:  174000000 cycles:  777248016 heartbeat IPC: 0.05009 cumulative IPC: 0.10420 (Simulation time: 0 hr 9 min 12 sec) 
Heartbeat CPU  0 instructions:  175000000 cycles:  779375260 heartbeat IPC: 0.47009 cumulative IPC: 0.10529 (Simulation time: 0 hr 9 min 13 sec) 
Heartbeat CPU  0 instructions:  176000000 cycles:  781365940 heartbeat IPC: 0.50234 cumulative IPC: 0.10640 (Simulation time: 0 hr 9 min 15 sec) 
Heartbeat CPU  0 instructions:  177000002 cycles:  791650683 heartbeat IPC: 0.09723 cumulative IPC: 0.10627 (Simulation time: 0 hr 9 min 20 sec) 
Heartbeat CPU  0 instructions:  178000001 cycles:  804647090 heartbeat IPC: 0.07694 cumulative IPC: 0.10575 (Simulation time: 0 hr 9 min 26 sec) 
Heartbeat CPU  0 instructions:  179000000 cycles:  813110689 heartbeat IPC: 0.11815 cumulative IPC: 0.10589 (Simulation time: 0 hr 9 min 31 sec) 
Heartbeat CPU  0 instructions:  180000000 cycles:  826087865 heartbeat IPC: 0.07706 cumulative IPC: 0.10540 (Simulation time: 0 hr 9 min 40 sec) 
Heartbeat CPU  0 instructions:  181000003 cycles:  830959454 heartbeat IPC: 0.20527 cumulative IPC: 0.10604 (Simulation time: 0 hr 9 min 43 sec) 
Heartbeat CPU  0 instructions:  182000001 cycles:  852405456 heartbeat IPC: 0.04663 cumulative IPC: 0.10441 (Simulation time: 0 hr 9 min 55 sec) 
Heartbeat CPU  0 instructions:  183000000 cycles:  863655547 heartbeat IPC: 0.08889 cumulative IPC: 0.10419 (Simulation time: 0 hr 10 min 1 sec) 
Heartbeat CPU  0 instructions:  184000000 cycles:  865839709 heartbeat IPC: 0.45784 cumulative IPC: 0.10516 (Simulation time: 0 hr 10 min 3 sec) 
Heartbeat CPU  0 instructions:  185000002 cycles:  867848827 heartbeat IPC: 0.49773 cumulative IPC: 0.10615 (Simulation time: 0 hr 10 min 5 sec) 
Heartbeat CPU  0 instructions:  186000000 cycles:  885432060 heartbeat IPC: 0.05687 cumulative IPC: 0.10509 (Simulation time: 0 hr 10 min 12 sec) 
Heartbeat CPU  0 instructions:  187000003 cycles:  894586022 heartbeat IPC: 0.10924 cumulative IPC: 0.10513 (Simulation time: 0 hr 10 min 17 sec) 
Heartbeat CPU  0 instructions:  188000000 cycles:  902458870 heartbeat IPC: 0.12702 cumulative IPC: 0.10534 (Simulation time: 0 hr 10 min 22 sec) 
Heartbeat CPU  0 instructions:  189000001 cycles:  914119416 heartbeat IPC: 0.08576 cumulative IPC: 0.10507 (Simulation time: 0 hr 10 min 30 sec) 
Heartbeat CPU  0 instructions:  190000001 cycles:  920095522 heartbeat IPC: 0.16733 cumulative IPC: 0.10551 (Simulation time: 0 hr 10 min 34 sec) 
Heartbeat CPU  0 instructions:  191000002 cycles:  944248497 heartbeat IPC: 0.04140 cumulative IPC: 0.10374 (Simulation time: 0 hr 10 min 47 sec) 
Heartbeat CPU  0 instructions:  192000000 cycles:  950441832 heartbeat IPC: 0.16146 cumulative IPC: 0.10415 (Simulation time: 0 hr 10 min 50 sec) 
Heartbeat CPU  0 instructions:  193000003 cycles:  952537282 heartbeat IPC: 0.47723 cumulative IPC: 0.10503 (Simulation time: 0 hr 10 min 52 sec) 
Heartbeat CPU  0 instructions:  194000001 cycles:  956468226 heartbeat IPC: 0.25439 cumulative IPC: 0.10569 (Simulation time: 0 hr 10 min 55 sec) 
Heartbeat CPU  0 instructions:  195000001 cycles:  975360538 heartbeat IPC: 0.05293 cumulative IPC: 0.10459 (Simulation time: 0 hr 11 min 3 sec) 
Heartbeat CPU  0 instructions:  196000000 cycles:  983124379 heartbeat IPC: 0.12880 cumulative IPC: 0.10480 (Simulation time: 0 hr 11 min 7 sec) 
Heartbeat CPU  0 instructions:  197000000 cycles:  994264260 heartbeat IPC: 0.08977 cumulative IPC: 0.10462 (Simulation time: 0 hr 11 min 15 sec) 
Heartbeat CPU  0 instructions:  198000000 cycles: 1001757821 heartbeat IPC: 0.13345 cumulative IPC: 0.10485 (Simulation time: 0 hr 11 min 19 sec) 
Heartbeat CPU  0 instructions:  199000000 cycles: 1011621741 heartbeat IPC: 0.10138 cumulative IPC: 0.10481 (Simulation time: 0 hr 11 min 25 sec) 
Heartbeat CPU  0 instructions:  200000000 cycles: 1035052405 heartbeat IPC: 0.04268 cumulative IPC: 0.10331 (Simulation time: 0 hr 11 min 38 sec) 
Heartbeat CPU  0 instructions:  201000000 cycles: 1037105223 heartbeat IPC: 0.48714 cumulative IPC: 0.10412 (Simulation time: 0 hr 11 min 39 sec) 
Heartbeat CPU  0 instructions:  202000002 cycles: 1039162590 heartbeat IPC: 0.48606 cumulative IPC: 0.10493 (Simulation time: 0 hr 11 min 41 sec) 
Heartbeat CPU  0 instructions:  203000002 cycles: 1046584270 heartbeat IPC: 0.13474 cumulative IPC: 0.10515 (Simulation time: 0 hr 11 min 45 sec) 
Heartbeat CPU  0 instructions:  204000000 cycles: 1062439434 heartbeat IPC: 0.06307 cumulative IPC: 0.10448 (Simulation time: 0 hr 11 min 52 sec) 
Heartbeat CPU  0 instructions:  205000000 cycles: 1070625026 heartbeat IPC: 0.12217 cumulative IPC: 0.10463 (Simulation time: 0 hr 11 min 57 sec) 
Heartbeat CPU  0 instructions:  206000000 cycles: 1073634456 heartbeat IPC: 0.33229 cumulative IPC: 0.10531 (Simulation time: 0 hr 12 min 0 sec) 
Heartbeat CPU  0 instructions:  207000002 cycles: 1094315003 heartbeat IPC: 0.04835 cumulative IPC: 0.10416 (Simulation time: 0 hr 12 min 8 sec) 
Heartbeat CPU  0 instructions:  208000000 cycles: 1106491162 heartbeat IPC: 0.08213 cumulative IPC: 0.10390 (Simulation time: 0 hr 12 min 17 sec) 
Heartbeat CPU  0 instructions:  209000001 cycles: 1121268877 heartbeat IPC: 0.06767 cumulative IPC: 0.10340 (Simulation time: 0 hr 12 min 25 sec) 
Heartbeat CPU  0 instructions:  210000000 cycles: 1131147136 heartbeat IPC: 0.10123 cumulative IPC: 0.10338 (Simulation time: 0 hr 12 min 30 sec) 
Heartbeat CPU  0 instructions:  211000001 cycles: 1140046579 heartbeat IPC: 0.11237 cumulative IPC: 0.10345 (Simulation time: 0 hr 12 min 35 sec) 
Heartbeat CPU  0 instructions:  212000000 cycles: 1148048591 heartbeat IPC: 0.12497 cumulative IPC: 0.10361 (Simulation time: 0 hr 12 min 40 sec) 
Heartbeat CPU  0 instructions:  213000002 cycles: 1153959794 heartbeat IPC: 0.16917 cumulative IPC: 0.10397 (Simulation time: 0 hr 12 min 44 sec) 
Heartbeat CPU  0 instructions:  214000001 cycles: 1158420038 heartbeat IPC: 0.22420 cumulative IPC: 0.10446 (Simulation time: 0 hr 12 min 46 sec) 
Heartbeat CPU  0 instructions:  215000002 cycles: 1162223375 heartbeat IPC: 0.26293 cumulative IPC: 0.10501 (Simulation time: 0 hr 12 min 49 sec) 
Heartbeat CPU  0 instructions:  216000000 cycles: 1165456269 heartbeat IPC: 0.30932 cumulative IPC: 0.10561 (Simulation time: 0 hr 12 min 52 sec) 
Heartbeat CPU  0 instructions:  217000000 cycles: 1168839311 heartbeat IPC: 0.29559 cumulative IPC: 0.10619 (Simulation time: 0 hr 12 min 55 sec) 
Heartbeat CPU  0 instructions:  218000002 cycles: 1172417731 heartbeat IPC: 0.27945 cumulative IPC: 0.10675 (Simulation time: 0 hr 12 min 58 sec) 
Heartbeat CPU  0 instructions:  219000002 cycles: 1178640688 heartbeat IPC: 0.16070 cumulative IPC: 0.10706 (Simulation time: 0 hr 13 min 3 sec) 
Heartbeat CPU  0 instructions:  220000000 cycles: 1186465461 heartbeat IPC: 0.12780 cumulative IPC: 0.10720 (Simulation time: 0 hr 13 min 8 sec) 
Heartbeat CPU  0 instructions:  221000000 cycles: 1196142809 heartbeat IPC: 0.10333 cumulative IPC: 0.10717 (Simulation time: 0 hr 13 min 14 sec) 
Heartbeat CPU  0 instructions:  222000003 cycles: 1204699207 heartbeat IPC: 0.11687 cumulative IPC: 0.10724 (Simulation time: 0 hr 13 min 20 sec) 
Heartbeat CPU  0 instructions:  223000001 cycles: 1210893882 heartbeat IPC: 0.16143 cumulative IPC: 0.10753 (Simulation time: 0 hr 13 min 24 sec) 
Heartbeat CPU  0 instructions:  224000000 cycles: 1218982944 heartbeat IPC: 0.12362 cumulative IPC: 0.10765 (Simulation time: 0 hr 13 min 29 sec) 
Heartbeat CPU  0 instructions:  225000000 cycles: 1231161191 heartbeat IPC: 0.08211 cumulative IPC: 0.10738 (Simulation time: 0 hr 13 min 37 sec) 
Heartbeat CPU  0 instructions:  226000000 cycles: 1235718106 heartbeat IPC: 0.21945 cumulative IPC: 0.10782 (Simulation time: 0 hr 13 min 41 sec) 
Heartbeat CPU  0 instructions:  227000000 cycles: 1259920217 heartbeat IPC: 0.04132 cumulative IPC: 0.10647 (Simulation time: 0 hr 13 min 53 sec) 
Heartbeat CPU  0 instructions:  228000000 cycles: 1267785880 heartbeat IPC: 0.12713 cumulative IPC: 0.10660 (Simulation time: 0 hr 13 min 58 sec) 
Heartbeat CPU  0 instructions:  229000001 cycles: 1269931041 heartbeat IPC: 0.46617 cumulative IPC: 0.10724 (Simulation time: 0 hr 13 min 59 sec) 
Heartbeat CPU  0 instructions:  230000000 cycles: 1272845926 heartbeat IPC: 0.34307 cumulative IPC: 0.10781 (Simulation time: 0 hr 14 min 2 sec) 
Heartbeat CPU  0 instructions:  231000000 cycles: 1292351547 heartbeat IPC: 0.05127 cumulative IPC: 0.10691 (Simulation time: 0 hr 14 min 10 sec) 
Heartbeat CPU  0 instructions:  232000000 cycles: 1299904019 heartbeat IPC: 0.13241 cumulative IPC: 0.10707 (Simulation time: 0 hr 14 min 14 sec) 
Heartbeat CPU  0 instructions:  233000000 cycles: 1311725537 heartbeat IPC: 0.08459 cumulative IPC: 0.10686 (Simulation time: 0 hr 14 min 23 sec) 
Heartbeat CPU  0 instructions:  234000002 cycles: 1319309629 heartbeat IPC: 0.13186 cumulative IPC: 0.10701 (Simulation time: 0 hr 14 min 27 sec) 
Heartbeat CPU  0 instructions:  235000000 cycles: 1331968116 heartbeat IPC: 0.07900 cumulative IPC: 0.10673 (Simulation time: 0 hr 14 min 34 sec) 
Heartbeat CPU  0 instructions:  236000000 cycles: 1351565752 heartbeat IPC: 0.05103 cumulative IPC: 0.10588 (Simulation time: 0 hr 14 min 45 sec) 
Heartbeat CPU  0 instructions:  237000002 cycles: 1353683528 heartbeat IPC: 0.47219 cumulative IPC: 0.10648 (Simulation time: 0 hr 14 min 46 sec) 
Heartbeat CPU  0 instructions:  238000002 cycles: 1355673233 heartbeat IPC: 0.50259 cumulative IPC: 0.10709 (Simulation time: 0 hr 14 min 48 sec) 
Heartbeat CPU  0 instructions:  239000001 cycles: 1366396470 heartbeat IPC: 0.09326 cumulative IPC: 0.10698 (Simulation time: 0 hr 14 min 53 sec) 
Heartbeat CPU  0 instructions:  240000000 cycles: 1379017029 heartbeat IPC: 0.07924 cumulative IPC: 0.10671 (Simulation time: 0 hr 14 min 59 sec) 
Heartbeat CPU  0 instructions:  241000001 cycles: 1387366164 heartbeat IPC: 0.11977 cumulative IPC: 0.10679 (Simulation time: 0 hr 15 min 4 sec) 
Heartbeat CPU  0 instructions:  242000002 cycles: 1399597225 heartbeat IPC: 0.08176 cumulative IPC: 0.10656 (Simulation time: 0 hr 15 min 12 sec) 
Heartbeat CPU  0 instructions:  243000002 cycles: 1405869504 heartbeat IPC: 0.15943 cumulative IPC: 0.10681 (Simulation time: 0 hr 15 min 16 sec) 
Heartbeat CPU  0 instructions:  244000000 cycles: 1424068223 heartbeat IPC: 0.05495 cumulative IPC: 0.10612 (Simulation time: 0 hr 15 min 26 sec) 
Heartbeat CPU  0 instructions:  245000001 cycles: 1438359537 heartbeat IPC: 0.06997 cumulative IPC: 0.10574 (Simulation time: 0 hr 15 min 34 sec) 
Heartbeat CPU  0 instructions:  246000001 cycles: 1440502937 heartbeat IPC: 0.46655 cumulative IPC: 0.10630 (Simulation time: 0 hr 15 min 35 sec) 
Heartbeat CPU  0 instructions:  247000001 cycles: 1442430197 heartbeat IPC: 0.51887 cumulative IPC: 0.10688 (Simulation time: 0 hr 15 min 37 sec) 
Heartbeat CPU  0 instructions:  248000000 cycles: 1456887558 heartbeat IPC: 0.06917 cumulative IPC: 0.10649 (Simulation time: 0 hr 15 min 43 sec) 
Heartbeat CPU  0 instructions:  249000000 cycles: 1467167334 heartbeat IPC: 0.09728 cumulative IPC: 0.10642 (Simulation time: 0 hr 15 min 49 sec) 
Heartbeat CPU  0 instructions:  250000000 cycles: 1474519577 heartbeat IPC: 0.13601 cumulative IPC: 0.10658 (Simulation time: 0 hr 15 min 53 sec) 
Heartbeat CPU  0 instructions:  251000002 cycles: 1488201466 heartbeat IPC: 0.07309 cumulative IPC: 0.10625 (Simulation time: 0 hr 16 min 2 sec) 
Heartbeat CPU  0 instructions:  252000000 cycles: 1492480265 heartbeat IPC: 0.23371 cumulative IPC: 0.10664 (Simulation time: 0 hr 16 min 6 sec) 
Heartbeat CPU  0 instructions:  253000000 cycles: 1515179939 heartbeat IPC: 0.04405 cumulative IPC: 0.10565 (Simulation time: 0 hr 16 min 18 sec) 
Heartbeat CPU  0 instructions:  254000000 cycles: 1525276784 heartbeat IPC: 0.09904 cumulative IPC: 0.10561 (Simulation time: 0 hr 16 min 23 sec) 
Heartbeat CPU  0 instructions:  255000002 cycles: 1527386990 heartbeat IPC: 0.47389 cumulative IPC: 0.10614 (Simulation time: 0 hr 16 min 25 sec) 
Heartbeat CPU  0 instructions:  256000000 cycles: 1529644327 heartbeat IPC: 0.44300 cumulative IPC: 0.10666 (Simulation time: 0 hr 16 min 27 sec) 
Heartbeat CPU  0 instructions:  257000000 cycles: 1548047805 heartbeat IPC: 0.05434 cumulative IPC: 0.10601 (Simulation time: 0 hr 16 min 34 sec) 
Heartbeat CPU  0 instructions:  258000002 cycles: 1556567597 heartbeat IPC: 0.11737 cumulative IPC: 0.10608 (Simulation time: 0 hr 16 min 40 sec) 
Heartbeat CPU  0 instructions:  259000003 cycles: 1565362523 heartbeat IPC: 0.11370 cumulative IPC: 0.10612 (Simulation time: 0 hr 16 min 46 sec) 
Heartbeat CPU  0 instructions:  260000000 cycles: 1575760599 heartbeat IPC: 0.09617 cumulative IPC: 0.10605 (Simulation time: 0 hr 16 min 52 sec) 
Heartbeat CPU  0 instructions:  261000000 cycles: 1582885306 heartbeat IPC: 0.14036 cumulative IPC: 0.10621 (Simulation time: 0 hr 16 min 58 sec) 
Heartbeat CPU  0 instructions:  262000000 cycles: 1607161582 heartbeat IPC: 0.04119 cumulative IPC: 0.10519 (Simulation time: 0 hr 17 min 10 sec) 
Heartbeat CPU  0 instructions:  263000002 cycles: 1611986342 heartbeat IPC: 0.20726 cumulative IPC: 0.10551 (Simulation time: 0 hr 17 min 13 sec) 
Heartbeat CPU  0 instructions:  264000000 cycles: 1614081862 heartbeat IPC: 0.47721 cumulative IPC: 0.10601 (Simulation time: 0 hr 17 min 15 sec) 
Heartbeat CPU  0 instructions:  265000003 cycles: 1618983007 heartbeat IPC: 0.20403 cumulative IPC: 0.10632 (Simulation time: 0 hr 17 min 18 sec) 
Heartbeat CPU  0 instructions:  266000002 cycles: 1636970320 heartbeat IPC: 0.05559 cumulative IPC: 0.10574 (Simulation time: 0 hr 17 min 26 sec) 
Heartbeat CPU  0 instructions:  267000000 cycles: 1644930950 heartbeat IPC: 0.12562 cumulative IPC: 0.10584 (Simulation time: 0 hr 17 min 30 sec) 
Heartbeat CPU  0 instructions:  268000000 cycles: 1656017375 heartbeat IPC: 0.09020 cumulative IPC: 0.10573 (Simulation time: 0 hr 17 min 38 sec) 
Heartbeat CPU  0 instructions:  269000002 cycles: 1663359084 heartbeat IPC: 0.13621 cumulative IPC: 0.10587 (Simulation time: 0 hr 17 min 42 sec) 
Heartbeat CPU  0 instructions:  270000002 cycles: 1674524791 heartbeat IPC: 0.08956 cumulative IPC: 0.10576 (Simulation time: 0 hr 17 min 49 sec) 
Heartbeat CPU  0 instructions:  271000003 cycles: 1696628112 heartbeat IPC: 0.04524 cumulative IPC: 0.10494 (Simulation time: 0 hr 18 min 0 sec) 
Heartbeat CPU  0 instructions:  272000000 cycles: 1698695882 heartbeat IPC: 0.48361 cumulative IPC: 0.10542 (Simulation time: 0 hr 18 min 2 sec) 
Heartbeat CPU  0 instructions:  273000003 cycles: 1700740753 heartbeat IPC: 0.48903 cumulative IPC: 0.10590 (Simulation time: 0 hr 18 min 4 sec) 
Heartbeat CPU  0 instructions:  274000001 cycles: 1709338165 heartbeat IPC: 0.11631 cumulative IPC: 0.10595 (Simulation time: 0 hr 18 min 8 sec) 
Heartbeat CPU  0 instructions:  275000000 cycles: 1724060899 heartbeat IPC: 0.06792 cumulative IPC: 0.10561 (Simulation time: 0 hr 18 min 15 sec) 
Heartbeat CPU  0 instructions:  276000000 cycles: 1732291513 heartbeat IPC: 0.12150 cumulative IPC: 0.10569 (Simulation time: 0 hr 18 min 19 sec) 
Heartbeat CPU  0 instructions:  277000001 cycles: 1743851465 heartbeat IPC: 0.08651 cumulative IPC: 0.10556 (Simulation time: 0 hr 18 min 28 sec) 
Heartbeat CPU  0 instructions:  278000000 cycles: 1750984490 heartbeat IPC: 0.14019 cumulative IPC: 0.10571 (Simulation time: 0 hr 18 min 32 sec) 
Heartbeat CPU  0 instructions:  279000000 cycles: 1766630277 heartbeat IPC: 0.06391 cumulative IPC: 0.10532 (Simulation time: 0 hr 18 min 41 sec) 
Heartbeat CPU  0 instructions:  280000000 cycles: 1783481750 heartbeat IPC: 0.05934 cumulative IPC: 0.10487 (Simulation time: 0 hr 18 min 50 sec) 
Heartbeat CPU  0 instructions:  281000000 cycles: 1785644616 heartbeat IPC: 0.46235 cumulative IPC: 0.10532 (Simulation time: 0 hr 18 min 52 sec) 
Heartbeat CPU  0 instructions:  282000000 cycles: 1787614419 heartbeat IPC: 0.50766 cumulative IPC: 0.10578 (Simulation time: 0 hr 18 min 53 sec) 
Heartbeat CPU  0 instructions:  283000003 cycles: 1800006906 heartbeat IPC: 0.08069 cumulative IPC: 0.10560 (Simulation time: 0 hr 18 min 59 sec) 
Heartbeat CPU  0 instructions:  284000000 cycles: 1810894787 heartbeat IPC: 0.09184 cumulative IPC: 0.10552 (Simulation time: 0 hr 19 min 5 sec) 
Heartbeat CPU  0 instructions:  285000001 cycles: 1819401610 heartbeat IPC: 0.11755 cumulative IPC: 0.10557 (Simulation time: 0 hr 19 min 9 sec) 
Heartbeat CPU  0 instructions:  286000000 cycles: 1832152969 heartbeat IPC: 0.07842 cumulative IPC: 0.10538 (Simulation time: 0 hr 19 min 18 sec) 
Heartbeat CPU  0 instructions:  287000003 cycles: 1837697366 heartbeat IPC: 0.18036 cumulative IPC: 0.10561 (Simulation time: 0 hr 19 min 22 sec) 
Heartbeat CPU  0 instructions:  288000000 cycles: 1857715586 heartbeat IPC: 0.04995 cumulative IPC: 0.10499 (Simulation time: 0 hr 19 min 33 sec) 
Heartbeat CPU  0 instructions:  289000000 cycles: 1870175162 heartbeat IPC: 0.08026 cumulative IPC: 0.10482 (Simulation time: 0 hr 19 min 39 sec) 
Heartbeat CPU  0 instructions:  290000000 cycles: 1872320385 heartbeat IPC: 0.46615 cumulative IPC: 0.10525 (Simulation time: 0 hr 19 min 41 sec) 
Heartbeat CPU  0 instructions:  291000000 cycles: 1874196678 heartbeat IPC: 0.53297 cumulative IPC: 0.10569 (Simulation time: 0 hr 19 min 43 sec) 
Heartbeat CPU  0 instructions:  292000000 cycles: 1890552529 heartbeat IPC: 0.06114 cumulative IPC: 0.10529 (Simulation time: 0 hr 19 min 50 sec) 
Heartbeat CPU  0 instructions:  293000002 cycles: 1900453539 heartbeat IPC: 0.10100 cumulative IPC: 0.10527 (Simulation time: 0 hr 19 min 56 sec) 
Heartbeat CPU  0 instructions:  294000001 cycles: 1907630463 heartbeat IPC: 0.13934 cumulative IPC: 0.10540 (Simulation time: 0 hr 20 min 0 sec) 
Heartbeat CPU  0 instructions:  295000003 cycles: 1920375815 heartbeat IPC: 0.07846 cumulative IPC: 0.10522 (Simulation time: 0 hr 20 min 8 sec) 
Heartbeat CPU  0 instructions:  296000000 cycles: 1924707812 heartbeat IPC: 0.23084 cumulative IPC: 0.10551 (Simulation time: 0 hr 20 min 12 sec) 
Heartbeat CPU  0 instructions:  297000000 cycles: 1949103294 heartbeat IPC: 0.04099 cumulative IPC: 0.10467 (Simulation time: 0 hr 20 min 25 sec) 
Heartbeat CPU  0 instructions:  298000000 cycles: 1957022213 heartbeat IPC: 0.12628 cumulative IPC: 0.10476 (Simulation time: 0 hr 20 min 29 sec) 
Heartbeat CPU  0 instructions:  299000000 cycles: 1959180787 heartbeat IPC: 0.46327 cumulative IPC: 0.10517 (Simulation time: 0 hr 20 min 31 sec) 
Heartbeat CPU  0 instructions:  300000000 cycles: 1966363305 heartbeat IPC: 0.13923 cumulative IPC: 0.10530 (Simulation time: 0 hr 20 min 34 sec) 
Heartbeat CPU  0 instructions:  301000001 cycles: 1984940769 heartbeat IPC: 0.05383 cumulative IPC: 0.10480 (Simulation time: 0 hr 20 min 43 sec) 
Heartbeat CPU  0 instructions:  302000001 cycles: 1996676530 heartbeat IPC: 0.08521 cumulative IPC: 0.10468 (Simulation time: 0 hr 20 min 48 sec) 
Heartbeat CPU  0 instructions:  303000000 cycles: 2005463208 heartbeat IPC: 0.11381 cumulative IPC: 0.10473 (Simulation time: 0 hr 20 min 53 sec) 
Heartbeat CPU  0 instructions:  304000000 cycles: 2012921505 heartbeat IPC: 0.13408 cumulative IPC: 0.10484 (Simulation time: 0 hr 20 min 58 sec) 
Heartbeat CPU  0 instructions:  305000000 cycles: 2025282826 heartbeat IPC: 0.08090 cumulative IPC: 0.10469 (Simulation time: 0 hr 21 min 6 sec) 
Heartbeat CPU  0 instructions:  306000003 cycles: 2030307516 heartbeat IPC: 0.19902 cumulative IPC: 0.10493 (Simulation time: 0 hr 21 min 10 sec) 
Heartbeat CPU  0 instructions:  307000001 cycles: 2054730232 heartbeat IPC: 0.04095 cumulative IPC: 0.10414 (Simulation time: 0 hr 21 min 23 sec) 
Heartbeat CPU  0 instructions:  308000000 cycles: 2061916868 heartbeat IPC: 0.13915 cumulative IPC: 0.10427 (Simulation time: 0 hr 21 min 27 sec) 
Heartbeat CPU  0 instructions:  309000001 cycles: 2064062309 heartbeat IPC: 0.46611 cumulative IPC: 0.10466 (Simulation time: 0 hr 21 min 29 sec) 
Heartbeat CPU  0 instructions:  310000000 cycles: 2071755580 heartbeat IPC: 0.12998 cumulative IPC: 0.10475 (Simulation time: 0 hr 21 min 33 sec) 
Heartbeat CPU  0 instructions:  311000001 cycles: 2089727766 heartbeat IPC: 0.05564 cumulative IPC: 0.10432 (Simulation time: 0 hr 21 min 41 sec) 
Heartbeat CPU  0 instructions:  312000000 cycles: 2102185092 heartbeat IPC: 0.08027 cumulative IPC: 0.10417 (Simulation time: 0 hr 21 min 46 sec) 
Heartbeat CPU  0 instructions:  313000000 cycles: 2110636776 heartbeat IPC: 0.11832 cumulative IPC: 0.10423 (Simulation time: 0 hr 21 min 51 sec) 
Heartbeat CPU  0 instructions:  314000002 cycles: 2115872835 heartbeat IPC: 0.19098 cumulative IPC: 0.10445 (Simulation time: 0 hr 21 min 55 sec) 
Heartbeat CPU  0 instructions:  315000000 cycles: 2128974838 heartbeat IPC: 0.07632 cumulative IPC: 0.10427 (Simulation time: 0 hr 22 min 1 sec) 
Heartbeat CPU  0 instructions:  316000000 cycles: 2144713434 heartbeat IPC: 0.06354 cumulative IPC: 0.10396 (Simulation time: 0 hr 22 min 9 sec) 
Heartbeat CPU  0 instructions:  317000002 cycles: 2160384475 heartbeat IPC: 0.06381 cumulative IPC: 0.10366 (Simulation time: 0 hr 22 min 19 sec) 
Heartbeat CPU  0 instructions:  318000001 cycles: 2170535393 heartbeat IPC: 0.09851 cumulative IPC: 0.10364 (Simulation time: 0 hr 22 min 25 sec) 
Heartbeat CPU  0 instructions:  319000001 cycles: 2179742246 heartbeat IPC: 0.10861 cumulative IPC: 0.10366 (Simulation time: 0 hr 22 min 30 sec) 
Heartbeat CPU  0 instructions:  320000000 cycles: 2188152847 heartbeat IPC: 0.11890 cumulative IPC: 0.10372 (Simulation time: 0 hr 22 min 35 sec) 
Heartbeat CPU  0 instructions:  321000003 cycles: 2195879717 heartbeat IPC: 0.12942 cumulative IPC: 0.10381 (Simulation time: 0 hr 22 min 39 sec) 
Heartbeat CPU  0 instructions:  322000001 cycles: 2200091017 heartbeat IPC: 0.23746 cumulative IPC: 0.10408 (Simulation time: 0 hr 22 min 42 sec) 
Heartbeat CPU  0 instructions:  323000002 cycles: 2204420855 heartbeat IPC: 0.23096 cumulative IPC: 0.10433 (Simulation time: 0 hr 22 min 45 sec) 
Heartbeat CPU  0 instructions:  324000000 cycles: 2207735426 heartbeat IPC: 0.30170 cumulative IPC: 0.10464 (Simulation time: 0 hr 22 min 47 sec) 
Heartbeat CPU  0 instructions:  325000000 cycles: 2211335780 heartbeat IPC: 0.27775 cumulative IPC: 0.10493 (Simulation time: 0 hr 22 min 50 sec) 
Heartbeat CPU  0 instructions:  326000002 cycles: 2214956276 heartbeat IPC: 0.27621 cumulative IPC: 0.10522 (Simulation time: 0 hr 22 min 53 sec) 
Heartbeat CPU  0 instructions:  327000001 cycles: 2220255326 heartbeat IPC: 0.18871 cumulative IPC: 0.10543 (Simulation time: 0 hr 22 min 58 sec) 
Heartbeat CPU  0 instructions:  328000000 cycles: 2225604504 heartbeat IPC: 0.18694 cumulative IPC: 0.10563 (Simulation time: 0 hr 23 min 2 sec) 
Heartbeat CPU  0 instructions:  329000001 cycles: 2233949958 heartbeat IPC: 0.11983 cumulative IPC: 0.10568 (Simulation time: 0 hr 23 min 8 sec) 
Heartbeat CPU  0 instructions:  330000002 cycles: 2244478427 heartbeat IPC: 0.09498 cumulative IPC: 0.10563 (Simulation time: 0 hr 23 min 13 sec) 
Heartbeat CPU  0 instructions:  331000002 cycles: 2251911967 heartbeat IPC: 0.13453 cumulative IPC: 0.10573 (Simulation time: 0 hr 23 min 19 sec) 
Heartbeat CPU  0 instructions:  332000000 cycles: 2257892088 heartbeat IPC: 0.16722 cumulative IPC: 0.10590 (Simulation time: 0 hr 23 min 23 sec) 
Heartbeat CPU  0 instructions:  333000003 cycles: 2271051517 heartbeat IPC: 0.07599 cumulative IPC: 0.10572 (Simulation time: 0 hr 23 min 31 sec) 
Heartbeat CPU  0 instructions:  334000000 cycles: 2278486508 heartbeat IPC: 0.13450 cumulative IPC: 0.10581 (Simulation time: 0 hr 23 min 36 sec) 
Heartbeat CPU  0 instructions:  335000001 cycles: 2293777848 heartbeat IPC: 0.06540 cumulative IPC: 0.10554 (Simulation time: 0 hr 23 min 45 sec) 
Heartbeat CPU  0 instructions:  336000000 cycles: 2310766249 heartbeat IPC: 0.05886 cumulative IPC: 0.10518 (Simulation time: 0 hr 23 min 54 sec) 
Heartbeat CPU  0 instructions:  337000000 cycles: 2312905541 heartbeat IPC: 0.46744 cumulative IPC: 0.10553 (Simulation time: 0 hr 23 min 55 sec) 
Heartbeat CPU  0 instructions:  338000000 cycles: 2314894725 heartbeat IPC: 0.50272 cumulative IPC: 0.10588 (Simulation time: 0 hr 23 min 57 sec) 
Heartbeat CPU  0 instructions:  339000003 cycles: 2333247286 heartbeat IPC: 0.05449 cumulative IPC: 0.10546 (Simulation time: 0 hr 24 min 5 sec) 
Heartbeat CPU  0 instructions:  340000000 cycles: 2343632777 heartbeat IPC: 0.09629 cumulative IPC: 0.10542 (Simulation time: 0 hr 24 min 10 sec) 
Heartbeat CPU  0 instructions:  341000003 cycles: 2356764082 heartbeat IPC: 0.07615 cumulative IPC: 0.10525 (Simulation time: 0 hr 24 min 16 sec) 
Heartbeat CPU  0 instructions:  342000001 cycles: 2364717473 heartbeat IPC: 0.12573 cumulative IPC: 0.10533 (Simulation time: 0 hr 24 min 21 sec) 
Heartbeat CPU  0 instructions:  343000003 cycles: 2377278411 heartbeat IPC: 0.07961 cumulative IPC: 0.10519 (Simulation time: 0 hr 24 min 29 sec) 
Heartbeat CPU  0 instructions:  344000000 cycles: 2382216003 heartbeat IPC: 0.20253 cumulative IPC: 0.10539 (Simulation time: 0 hr 24 min 33 sec) 
Heartbeat CPU  0 instructions:  345000001 cycles: 2403105155 heartbeat IPC: 0.04787 cumulative IPC: 0.10488 (Simulation time: 0 hr 24 min 44 sec) 
Heartbeat CPU  0 instructions:  346000000 cycles: 2414761139 heartbeat IPC: 0.08579 cumulative IPC: 0.10478 (Simulation time: 0 hr 24 min 50 sec) 
Heartbeat CPU  0 instructions:  347000000 cycles: 2416913313 heartbeat IPC: 0.46465 cumulative IPC: 0.10511 (Simulation time: 0 hr 24 min 52 sec) 
Heartbeat CPU  0 instructions:  348000000 cycles: 2419361156 heartbeat IPC: 0.40852 cumulative IPC: 0.10543 (Simulation time: 0 hr 24 min 54 sec) 
Heartbeat CPU  0 instructions:  349000000 cycles: 2441934607 heartbeat IPC: 0.04430 cumulative IPC: 0.10485 (Simulation time: 0 hr 25 min 4 sec) 
Heartbeat CPU  0 instructions:  350000000 cycles: 2451523684 heartbeat IPC: 0.10429 cumulative IPC: 0.10485 (Simulation time: 0 hr 25 min 8 sec) 
Heartbeat CPU  0 instructions:  351000000 cycles: 2461375081 heartbeat IPC: 0.10151 cumulative IPC: 0.10483 (Simulation time: 0 hr 25 min 14 sec) 
Heartbeat CPU  0 instructions:  352000000 cycles: 2469017440 heartbeat IPC: 0.13085 cumulative IPC: 0.10491 (Simulation time: 0 hr 25 min 18 sec) 
Heartbeat CPU  0 instructions:  353000001 cycles: 2482228926 heartbeat IPC: 0.07569 cumulative IPC: 0.10476 (Simulation time: 0 hr 25 min 27 sec) 
Heartbeat CPU  0 instructions:  354000001 cycles: 2487075051 heartbeat IPC: 0.20635 cumulative IPC: 0.10496 (Simulation time: 0 hr 25 min 31 sec) 
Heartbeat CPU  0 instructions:  355000002 cycles: 2508728774 heartbeat IPC: 0.04618 cumulative IPC: 0.10444 (Simulation time: 0 hr 25 min 42 sec) 
Heartbeat CPU  0 instructions:  356000000 cycles: 2519692526 heartbeat IPC: 0.09121 cumulative IPC: 0.10438 (Simulation time: 0 hr 25 min 48 sec) 
Heartbeat CPU  0 instructions:  357000002 cycles: 2521834112 heartbeat IPC: 0.46694 cumulative IPC: 0.10469 (Simulation time: 0 hr 25 min 50 sec) 
Heartbeat CPU  0 instructions:  358000000 cycles: 2525014980 heartbeat IPC: 0.31438 cumulative IPC: 0.10497 (Simulation time: 0 hr 25 min 52 sec) 
Heartbeat CPU  0 instructions:  359000001 cycles: 2546984685 heartbeat IPC: 0.04552 cumulative IPC: 0.10444 (Simulation time: 0 hr 26 min 1 sec) 
Heartbeat CPU  0 instructions:  360000000 cycles: 2556858790 heartbeat IPC: 0.10127 cumulative IPC: 0.10443 (Simulation time: 0 hr 26 min 6 sec) 
Heartbeat CPU  0 instructions:  361000001 cycles: 2566447729 heartbeat IPC: 0.10429 cumulative IPC: 0.10443 (Simulation time: 0 hr 26 min 11 sec) 
Heartbeat CPU  0 instructions:  362000000 cycles: 2573807123 heartbeat IPC: 0.13588 cumulative IPC: 0.10452 (Simulation time: 0 hr 26 min 16 sec) 
Heartbeat CPU  0 instructions:  363000000 cycles: 2587449688 heartbeat IPC: 0.07330 cumulative IPC: 0.10435 (Simulation time: 0 hr 26 min 24 sec) 
Heartbeat CPU  0 instructions:  364000000 cycles: 2591848647 heartbeat IPC: 0.22733 cumulative IPC: 0.10456 (Simulation time: 0 hr 26 min 28 sec) 
Heartbeat CPU  0 instructions:  365000003 cycles: 2614160099 heartbeat IPC: 0.04482 cumulative IPC: 0.10404 (Simulation time: 0 hr 26 min 40 sec) 
Heartbeat CPU  0 instructions:  366000000 cycles: 2624431383 heartbeat IPC: 0.09736 cumulative IPC: 0.10401 (Simulation time: 0 hr 26 min 46 sec) 
Heartbeat CPU  0 instructions:  367000001 cycles: 2626558544 heartbeat IPC: 0.47011 cumulative IPC: 0.10432 (Simulation time: 0 hr 26 min 47 sec) 
Heartbeat CPU  0 instructions:  368000000 cycles: 2630581661 heartbeat IPC: 0.24856 cumulative IPC: 0.10454 (Simulation time: 0 hr 26 min 50 sec) 
Heartbeat CPU  0 instructions:  369000001 cycles: 2651876975 heartbeat IPC: 0.04696 cumulative IPC: 0.10407 (Simulation time: 0 hr 26 min 59 sec) 
Heartbeat CPU  0 instructions:  370000003 cycles: 2662114808 heartbeat IPC: 0.09768 cumulative IPC: 0.10404 (Simulation time: 0 hr 27 min 4 sec) 
Heartbeat CPU  0 instructions:  371000001 cycles: 2671613354 heartbeat IPC: 0.10528 cumulative IPC: 0.10405 (Simulation time: 0 hr 27 min 9 sec) 
Heartbeat CPU  0 instructions:  372000000 cycles: 2678747140 heartbeat IPC: 0.14018 cumulative IPC: 0.10415 (Simulation time: 0 hr 27 min 13 sec) 
Heartbeat CPU  0 instructions:  373000003 cycles: 2692423793 heartbeat IPC: 0.07312 cumulative IPC: 0.10399 (Simulation time: 0 hr 27 min 21 sec) 
Heartbeat CPU  0 instructions:  374000001 cycles: 2696567100 heartbeat IPC: 0.24135 cumulative IPC: 0.10420 (Simulation time: 0 hr 27 min 25 sec) 
Heartbeat CPU  0 instructions:  375000003 cycles: 2719647188 heartbeat IPC: 0.04333 cumulative IPC: 0.10367 (Simulation time: 0 hr 27 min 37 sec) 
Heartbeat CPU  0 instructions:  376000000 cycles: 2729341544 heartbeat IPC: 0.10315 cumulative IPC: 0.10367 (Simulation time: 0 hr 27 min 42 sec) 
Heartbeat CPU  0 instructions:  377000000 cycles: 2731490708 heartbeat IPC: 0.46530 cumulative IPC: 0.10396 (Simulation time: 0 hr 27 min 44 sec) 
Heartbeat CPU  0 instructions:  378000003 cycles: 2736432024 heartbeat IPC: 0.20238 cumulative IPC: 0.10414 (Simulation time: 0 hr 27 min 47 sec) 
Heartbeat CPU  0 instructions:  379000002 cycles: 2756931789 heartbeat IPC: 0.04878 cumulative IPC: 0.10372 (Simulation time: 0 hr 27 min 56 sec) 
Heartbeat CPU  0 instructions:  380000000 cycles: 2767568263 heartbeat IPC: 0.09402 cumulative IPC: 0.10368 (Simulation time: 0 hr 28 min 0 sec) 
Heartbeat CPU  0 instructions:  381000000 cycles: 2776979497 heartbeat IPC: 0.10626 cumulative IPC: 0.10369 (Simulation time: 0 hr 28 min 6 sec) 
Heartbeat CPU  0 instructions:  382000003 cycles: 2783882074 heartbeat IPC: 0.14487 cumulative IPC: 0.10380 (Simulation time: 0 hr 28 min 10 sec) 
Heartbeat CPU  0 instructions:  383000001 cycles: 2797393760 heartbeat IPC: 0.07401 cumulative IPC: 0.10365 (Simulation time: 0 hr 28 min 19 sec) 
Heartbeat CPU  0 instructions:  384000000 cycles: 2801454687 heartbeat IPC: 0.24625 cumulative IPC: 0.10386 (Simulation time: 0 hr 28 min 22 sec) 
Heartbeat CPU  0 instructions:  385000003 cycles: 2825156764 heartbeat IPC: 0.04219 cumulative IPC: 0.10333 (Simulation time: 0 hr 28 min 35 sec) 
Heartbeat CPU  0 instructions:  386000002 cycles: 2834173599 heartbeat IPC: 0.11090 cumulative IPC: 0.10336 (Simulation time: 0 hr 28 min 40 sec) 
Heartbeat CPU  0 instructions:  387000000 cycles: 2836340157 heartbeat IPC: 0.46156 cumulative IPC: 0.10364 (Simulation time: 0 hr 28 min 42 sec) 
Heartbeat CPU  0 instructions:  388000000 cycles: 2842184162 heartbeat IPC: 0.17112 cumulative IPC: 0.10378 (Simulation time: 0 hr 28 min 45 sec) 
Heartbeat CPU  0 instructions:  389000001 cycles: 2861833292 heartbeat IPC: 0.05089 cumulative IPC: 0.10341 (Simulation time: 0 hr 28 min 54 sec) 
Heartbeat CPU  0 instructions:  390000002 cycles: 2872836644 heartbeat IPC: 0.09088 cumulative IPC: 0.10336 (Simulation time: 0 hr 28 min 58 sec) 
Heartbeat CPU  0 instructions:  391000001 cycles: 2882022248 heartbeat IPC: 0.10887 cumulative IPC: 0.10338 (Simulation time: 0 hr 29 min 4 sec) 
Heartbeat CPU  0 instructions:  392000000 cycles: 2889080036 heartbeat IPC: 0.14169 cumulative IPC: 0.10347 (Simulation time: 0 hr 29 min 8 sec) 
Heartbeat CPU  0 instructions:  393000002 cycles: 2902135900 heartbeat IPC: 0.07659 cumulative IPC: 0.10335 (Simulation time: 0 hr 29 min 16 sec) 
Heartbeat CPU  0 instructions:  394000002 cycles: 2906070119 heartbeat IPC: 0.25418 cumulative IPC: 0.10356 (Simulation time: 0 hr 29 min 20 sec) 
Heartbeat CPU  0 instructions:  395000001 cycles: 2930528059 heartbeat IPC: 0.04089 cumulative IPC: 0.10302 (Simulation time: 0 hr 29 min 33 sec) 
Heartbeat CPU  0 instructions:  396000000 cycles: 2938674226 heartbeat IPC: 0.12276 cumulative IPC: 0.10308 (Simulation time: 0 hr 29 min 37 sec) 
Heartbeat CPU  0 instructions:  397000000 cycles: 2940774819 heartbeat IPC: 0.47606 cumulative IPC: 0.10335 (Simulation time: 0 hr 29 min 39 sec) 
Heartbeat CPU  0 instructions:  398000000 cycles: 2947535929 heartbeat IPC: 0.14790 cumulative IPC: 0.10346 (Simulation time: 0 hr 29 min 43 sec) 
Heartbeat CPU  0 instructions:  399000001 cycles: 2966479308 heartbeat IPC: 0.05279 cumulative IPC: 0.10312 (Simulation time: 0 hr 29 min 51 sec) 
Heartbeat CPU  0 instructions:  400000000 cycles: 2978067575 heartbeat IPC: 0.08629 cumulative IPC: 0.10306 (Simulation time: 0 hr 29 min 56 sec) 
Heartbeat CPU  0 instructions:  401000000 cycles: 2987007006 heartbeat IPC: 0.11186 cumulative IPC: 0.10308 (Simulation time: 0 hr 30 min 1 sec) 
Heartbeat CPU  0 instructions:  402000000 cycles: 2994338008 heartbeat IPC: 0.13641 cumulative IPC: 0.10317 (Simulation time: 0 hr 30 min 6 sec) 
Heartbeat CPU  0 instructions:  403000000 cycles: 3006897840 heartbeat IPC: 0.07962 cumulative IPC: 0.10307 (Simulation time: 0 hr 30 min 14 sec) 
Heartbeat CPU  0 instructions:  404000000 cycles: 3011624196 heartbeat IPC: 0.21158 cumulative IPC: 0.10324 (Simulation time: 0 hr 30 min 18 sec) 
Heartbeat CPU  0 instructions:  405000002 cycles: 3035982136 heartbeat IPC: 0.04105 cumulative IPC: 0.10273 (Simulation time: 0 hr 30 min 31 sec) 
Heartbeat CPU  0 instructions:  406000000 cycles: 3043524941 heartbeat IPC: 0.13258 cumulative IPC: 0.10281 (Simulation time: 0 hr 30 min 35 sec) 
Heartbeat CPU  0 instructions:  407000000 cycles: 3045640401 heartbeat IPC: 0.47271 cumulative IPC: 0.10307 (Simulation time: 0 hr 30 min 37 sec) 
Heartbeat CPU  0 instructions:  408000000 cycles: 3053071480 heartbeat IPC: 0.13457 cumulative IPC: 0.10315 (Simulation time: 0 hr 30 min 41 sec) 
Heartbeat CPU  0 instructions:  409000002 cycles: 3071351584 heartbeat IPC: 0.05470 cumulative IPC: 0.10285 (Simulation time: 0 hr 30 min 49 sec) 
Heartbeat CPU  0 instructions:  410000000 cycles: 3083448971 heartbeat IPC: 0.08266 cumulative IPC: 0.10277 (Simulation time: 0 hr 30 min 54 sec) 
Heartbeat CPU  0 instructions:  411000002 cycles: 3092117873 heartbeat IPC: 0.11536 cumulative IPC: 0.10281 (Simulation time: 0 hr 30 min 59 sec) 
Heartbeat CPU  0 instructions:  412000000 cycles: 3099710812 heartbeat IPC: 0.13170 cumulative IPC: 0.10288 (Simulation time: 0 hr 31 min 4 sec) 
Heartbeat CPU  0 instructions:  413000001 cycles: 3111836828 heartbeat IPC: 0.08247 cumulative IPC: 0.10280 (Simulation time: 0 hr 31 min 12 sec) 
Heartbeat CPU  0 instructions:  414000000 cycles: 3117214308 heartbeat IPC: 0.18596 cumulative IPC: 0.10295 (Simulation time: 0 hr 31 min 16 sec) 
Heartbeat CPU  0 instructions:  415000002 cycles: 3141473716 heartbeat IPC: 0.04122 cumulative IPC: 0.10246 (Simulation time: 0 hr 31 min 29 sec) 
Heartbeat CPU  0 instructions:  416000000 cycles: 3148266781 heartbeat IPC: 0.14721 cumulative IPC: 0.10256 (Simulation time: 0 hr 31 min 33 sec) 
Heartbeat CPU  0 instructions:  417000000 cycles: 3150405640 heartbeat IPC: 0.46754 cumulative IPC: 0.10281 (Simulation time: 0 hr 31 min 34 sec) 
Heartbeat CPU  0 instructions:  418000000 cycles: 3158538737 heartbeat IPC: 0.12295 cumulative IPC: 0.10286 (Simulation time: 0 hr 31 min 38 sec) 
Heartbeat CPU  0 instructions:  419000001 cycles: 3176070608 heartbeat IPC: 0.05704 cumulative IPC: 0.10261 (Simulation time: 0 hr 31 min 46 sec) 
Heartbeat CPU  0 instructions:  420000000 cycles: 3188869338 heartbeat IPC: 0.07813 cumulative IPC: 0.10251 (Simulation time: 0 hr 31 min 52 sec) 
Heartbeat CPU  0 instructions:  421000000 cycles: 3197160031 heartbeat IPC: 0.12062 cumulative IPC: 0.10255 (Simulation time: 0 hr 31 min 57 sec) 
Heartbeat CPU  0 instructions:  422000003 cycles: 3204996016 heartbeat IPC: 0.12762 cumulative IPC: 0.10262 (Simulation time: 0 hr 32 min 2 sec) 
Heartbeat CPU  0 instructions:  423000003 cycles: 3216632937 heartbeat IPC: 0.08593 cumulative IPC: 0.10255 (Simulation time: 0 hr 32 min 9 sec) 
Heartbeat CPU  0 instructions:  424000000 cycles: 3222642171 heartbeat IPC: 0.16641 cumulative IPC: 0.10268 (Simulation time: 0 hr 32 min 14 sec) 
Heartbeat CPU  0 instructions:  425000000 cycles: 3246977901 heartbeat IPC: 0.04109 cumulative IPC: 0.10220 (Simulation time: 0 hr 32 min 27 sec) 
Heartbeat CPU  0 instructions:  426000002 cycles: 3253161120 heartbeat IPC: 0.16173 cumulative IPC: 0.10232 (Simulation time: 0 hr 32 min 30 sec) 
Heartbeat CPU  0 instructions:  427000002 cycles: 3255250912 heartbeat IPC: 0.47852 cumulative IPC: 0.10257 (Simulation time: 0 hr 32 min 32 sec) 
Heartbeat CPU  0 instructions:  428000000 cycles: 3263954976 heartbeat IPC: 0.11489 cumulative IPC: 0.10260 (Simulation time: 0 hr 32 min 36 sec) 
Heartbeat CPU  0 instructions:  429000001 cycles: 3280854023 heartbeat IPC: 0.05917 cumulative IPC: 0.10237 (Simulation time: 0 hr 32 min 44 sec) 
Heartbeat CPU  0 instructions:  430000002 cycles: 3294181454 heartbeat IPC: 0.07503 cumulative IPC: 0.10226 (Simulation time: 0 hr 32 min 49 sec) 
Heartbeat CPU  0 instructions:  431000003 cycles: 3302197049 heartbeat IPC: 0.12476 cumulative IPC: 0.10231 (Simulation time: 0 hr 32 min 55 sec) 
Heartbeat CPU  0 instructions:  432000000 cycles: 3307096165 heartbeat IPC: 0.20412 cumulative IPC: 0.10247 (Simulation time: 0 hr 32 min 58 sec) 
Heartbeat CPU  0 instructions:  433000002 cycles: 3320982975 heartbeat IPC: 0.07201 cumulative IPC: 0.10234 (Simulation time: 0 hr 33 min 5 sec) 
Heartbeat CPU  0 instructions:  434000000 cycles: 3336268636 heartbeat IPC: 0.06542 cumulative IPC: 0.10217 (Simulation time: 0 hr 33 min 13 sec) 
Heartbeat CPU  0 instructions:  435000001 cycles: 3351987444 heartbeat IPC: 0.06362 cumulative IPC: 0.10198 (Simulation time: 0 hr 33 min 22 sec) 
Heartbeat CPU  0 instructions:  436000000 cycles: 3362056387 heartbeat IPC: 0.09932 cumulative IPC: 0.10197 (Simulation time: 0 hr 33 min 28 sec) 
Heartbeat CPU  0 instructions:  437000003 cycles: 3371218520 heartbeat IPC: 0.10915 cumulative IPC: 0.10199 (Simulation time: 0 hr 33 min 33 sec) 
Heartbeat CPU  0 instructions:  438000002 cycles: 3379636272 heartbeat IPC: 0.11880 cumulative IPC: 0.10204 (Simulation time: 0 hr 33 min 38 sec) 
Heartbeat CPU  0 instructions:  439000000 cycles: 3387158910 heartbeat IPC: 0.13293 cumulative IPC: 0.10211 (Simulation time: 0 hr 33 min 42 sec) 
Heartbeat CPU  0 instructions:  440000000 cycles: 3391375983 heartbeat IPC: 0.23713 cumulative IPC: 0.10228 (Simulation time: 0 hr 33 min 45 sec) 
Heartbeat CPU  0 instructions:  441000000 cycles: 3395651750 heartbeat IPC: 0.23388 cumulative IPC: 0.10245 (Simulation time: 0 hr 33 min 48 sec) 
Heartbeat CPU  0 instructions:  442000000 cycles: 3398950554 heartbeat IPC: 0.30314 cumulative IPC: 0.10264 (Simulation time: 0 hr 33 min 51 sec) 
Heartbeat CPU  0 instructions:  443000002 cycles: 3402513025 heartbeat IPC: 0.28070 cumulative IPC: 0.10283 (Simulation time: 0 hr 33 min 54 sec) 
Heartbeat CPU  0 instructions:  444000000 cycles: 3406126215 heartbeat IPC: 0.27676 cumulative IPC: 0.10302 (Simulation time: 0 hr 33 min 57 sec) 
Heartbeat CPU  0 instructions:  445000002 cycles: 3411746633 heartbeat IPC: 0.17792 cumulative IPC: 0.10315 (Simulation time: 0 hr 34 min 1 sec) 
Heartbeat CPU  0 instructions:  446000001 cycles: 3417302990 heartbeat IPC: 0.17997 cumulative IPC: 0.10328 (Simulation time: 0 hr 34 min 6 sec) 
Heartbeat CPU  0 instructions:  447000001 cycles: 3425275944 heartbeat IPC: 0.12542 cumulative IPC: 0.10333 (Simulation time: 0 hr 34 min 11 sec) 
Heartbeat CPU  0 instructions:  448000000 cycles: 3435777230 heartbeat IPC: 0.09523 cumulative IPC: 0.10330 (Simulation time: 0 hr 34 min 16 sec) 
Heartbeat CPU  0 instructions:  449000003 cycles: 3443458837 heartbeat IPC: 0.13018 cumulative IPC: 0.10336 (Simulation time: 0 hr 34 min 22 sec) 
Heartbeat CPU  0 instructions:  450000000 cycles: 3449347480 heartbeat IPC: 0.16982 cumulative IPC: 0.10348 (Simulation time: 0 hr 34 min 26 sec) 
Heartbeat CPU  0 instructions:  451000003 cycles: 3462460836 heartbeat IPC: 0.07626 cumulative IPC: 0.10338 (Simulation time: 0 hr 34 min 34 sec) 
Heartbeat CPU  0 instructions:  452000000 cycles: 3469629790 heartbeat IPC: 0.13949 cumulative IPC: 0.10345 (Simulation time: 0 hr 34 min 39 sec) 
Heartbeat CPU  0 instructions:  453000001 cycles: 3485823807 heartbeat IPC: 0.06175 cumulative IPC: 0.10325 (Simulation time: 0 hr 34 min 48 sec) 
Heartbeat CPU  0 instructions:  454000000 cycles: 3501868248 heartbeat IPC: 0.06233 cumulative IPC: 0.10306 (Simulation time: 0 hr 34 min 57 sec) 
Heartbeat CPU  0 instructions:  455000000 cycles: 3504010571 heartbeat IPC: 0.46678 cumulative IPC: 0.10329 (Simulation time: 0 hr 34 min 58 sec) 
Heartbeat CPU  0 instructions:  456000000 cycles: 3506006214 heartbeat IPC: 0.50109 cumulative IPC: 0.10352 (Simulation time: 0 hr 35 min 0 sec) 
Heartbeat CPU  0 instructions:  457000002 cycles: 3525185114 heartbeat IPC: 0.05214 cumulative IPC: 0.10324 (Simulation time: 0 hr 35 min 8 sec) 
Heartbeat CPU  0 instructions:  458000002 cycles: 3535276808 heartbeat IPC: 0.09909 cumulative IPC: 0.10322 (Simulation time: 0 hr 35 min 13 sec) 
Heartbeat CPU  0 instructions:  459000000 cycles: 3547789904 heartbeat IPC: 0.07992 cumulative IPC: 0.10314 (Simulation time: 0 hr 35 min 19 sec) 
Heartbeat CPU  0 instructions:  460000000 cycles: 3555817519 heartbeat IPC: 0.12457 cumulative IPC: 0.10319 (Simulation time: 0 hr 35 min 24 sec) 
Heartbeat CPU  0 instructions:  461000001 cycles: 3568746773 heartbeat IPC: 0.07734 cumulative IPC: 0.10309 (Simulation time: 0 hr 35 min 32 sec) 
Heartbeat CPU  0 instructions:  462000001 cycles: 3573206513 heartbeat IPC: 0.22423 cumulative IPC: 0.10325 (Simulation time: 0 hr 35 min 36 sec) 
Heartbeat CPU  0 instructions:  463000000 cycles: 3594943425 heartbeat IPC: 0.04600 cumulative IPC: 0.10289 (Simulation time: 0 hr 35 min 48 sec) 
Heartbeat CPU  0 instructions:  464000000 cycles: 3605664933 heartbeat IPC: 0.09327 cumulative IPC: 0.10287 (Simulation time: 0 hr 35 min 54 sec) 
Heartbeat CPU  0 instructions:  465000002 cycles: 3607807590 heartbeat IPC: 0.46671 cumulative IPC: 0.10309 (Simulation time: 0 hr 35 min 55 sec) 
Heartbeat CPU  0 instructions:  466000002 cycles: 3611196785 heartbeat IPC: 0.29506 cumulative IPC: 0.10327 (Simulation time: 0 hr 35 min 58 sec) 
Heartbeat CPU  0 instructions:  467000003 cycles: 3632988200 heartbeat IPC: 0.04589 cumulative IPC: 0.10292 (Simulation time: 0 hr 36 min 7 sec) 
Heartbeat CPU  0 instructions:  468000000 cycles: 3643047767 heartbeat IPC: 0.09941 cumulative IPC: 0.10291 (Simulation time: 0 hr 36 min 12 sec) 
Heartbeat CPU  0 instructions:  469000000 cycles: 3652636926 heartbeat IPC: 0.10428 cumulative IPC: 0.10291 (Simulation time: 0 hr 36 min 17 sec) 
Heartbeat CPU  0 instructions:  470000000 cycles: 3659947826 heartbeat IPC: 0.13678 cumulative IPC: 0.10298 (Simulation time: 0 hr 36 min 22 sec) 
Heartbeat CPU  0 instructions:  471000002 cycles: 3673582576 heartbeat IPC: 0.07334 cumulative IPC: 0.10287 (Simulation time: 0 hr 36 min 30 sec) 
Heartbeat CPU  0 instructions:  472000000 cycles: 3677873094 heartbeat IPC: 0.23307 cumulative IPC: 0.10302 (Simulation time: 0 hr 36 min 34 sec) 
Heartbeat CPU  0 instructions:  473000003 cycles: 3700446634 heartbeat IPC: 0.04430 cumulative IPC: 0.10266 (Simulation time: 0 hr 36 min 46 sec) 
Heartbeat CPU  0 instructions:  474000001 cycles: 3710516517 heartbeat IPC: 0.09931 cumulative IPC: 0.10265 (Simulation time: 0 hr 36 min 51 sec) 
Heartbeat CPU  0 instructions:  475000000 cycles: 3712649715 heartbeat IPC: 0.46878 cumulative IPC: 0.10286 (Simulation time: 0 hr 36 min 53 sec) 
Heartbeat CPU  0 instructions:  476000000 cycles: 3716921451 heartbeat IPC: 0.23410 cumulative IPC: 0.10302 (Simulation time: 0 hr 36 min 56 sec) 
Heartbeat CPU  0 instructions:  477000003 cycles: 3738029371 heartbeat IPC: 0.04738 cumulative IPC: 0.10270 (Simulation time: 0 hr 37 min 5 sec) 
Heartbeat CPU  0 instructions:  478000000 cycles: 3748195236 heartbeat IPC: 0.09837 cumulative IPC: 0.10269 (Simulation time: 0 hr 37 min 9 sec) 
Heartbeat CPU  0 instructions:  479000001 cycles: 3757686165 heartbeat IPC: 0.10536 cumulative IPC: 0.10269 (Simulation time: 0 hr 37 min 15 sec) 
Heartbeat CPU  0 instructions:  480000000 cycles: 3764775128 heartbeat IPC: 0.14106 cumulative IPC: 0.10277 (Simulation time: 0 hr 37 min 19 sec) 
Heartbeat CPU  0 instructions:  481000002 cycles: 3778398667 heartbeat IPC: 0.07340 cumulative IPC: 0.10266 (Simulation time: 0 hr 37 min 28 sec) 
Heartbeat CPU  0 instructions:  482000003 cycles: 3782537938 heartbeat IPC: 0.24159 cumulative IPC: 0.10281 (Simulation time: 0 hr 37 min 31 sec) 
Heartbeat CPU  0 instructions:  483000000 cycles: 3805830373 heartbeat IPC: 0.04293 cumulative IPC: 0.10244 (Simulation time: 0 hr 37 min 44 sec) 
Heartbeat CPU  0 instructions:  484000000 cycles: 3815193527 heartbeat IPC: 0.10680 cumulative IPC: 0.10245 (Simulation time: 0 hr 37 min 49 sec) 
Heartbeat CPU  0 instructions:  485000000 cycles: 3817313568 heartbeat IPC: 0.47169 cumulative IPC: 0.10266 (Simulation time: 0 hr 37 min 51 sec) 
Heartbeat CPU  0 instructions:  486000003 cycles: 3822650213 heartbeat IPC: 0.18738 cumulative IPC: 0.10278 (Simulation time: 0 hr 37 min 54 sec) 
Heartbeat CPU  0 instructions:  487000000 cycles: 3842875476 heartbeat IPC: 0.04944 cumulative IPC: 0.10249 (Simulation time: 0 hr 38 min 2 sec) 
Heartbeat CPU  0 instructions:  488000000 cycles: 3853557578 heartbeat IPC: 0.09361 cumulative IPC: 0.10247 (Simulation time: 0 hr 38 min 7 sec) 
Heartbeat CPU  0 instructions:  489000000 cycles: 3862939587 heartbeat IPC: 0.10659 cumulative IPC: 0.10248 (Simulation time: 0 hr 38 min 13 sec) 
Heartbeat CPU  0 instructions:  490000002 cycles: 3869844933 heartbeat IPC: 0.14482 cumulative IPC: 0.10256 (Simulation time: 0 hr 38 min 17 sec) 
Heartbeat CPU  0 instructions:  491000002 cycles: 3883184885 heartbeat IPC: 0.07496 cumulative IPC: 0.10246 (Simulation time: 0 hr 38 min 24 sec) 
Heartbeat CPU  0 instructions:  492000000 cycles: 3887193309 heartbeat IPC: 0.24947 cumulative IPC: 0.10261 (Simulation time: 0 hr 38 min 28 sec) 
Heartbeat CPU  0 instructions:  493000003 cycles: 3911283097 heartbeat IPC: 0.04151 cumulative IPC: 0.10223 (Simulation time: 0 hr 38 min 41 sec) 
Heartbeat CPU  0 instructions:  494000000 cycles: 3919907904 heartbeat IPC: 0.11594 cumulative IPC: 0.10226 (Simulation time: 0 hr 38 min 45 sec) 
Heartbeat CPU  0 instructions:  495000000 cycles: 3922086214 heartbeat IPC: 0.45907 cumulative IPC: 0.10246 (Simulation time: 0 hr 38 min 47 sec) 
Heartbeat CPU  0 instructions:  496000000 cycles: 3928298712 heartbeat IPC: 0.16097 cumulative IPC: 0.10256 (Simulation time: 0 hr 38 min 50 sec) 
Heartbeat CPU  0 instructions:  497000000 cycles: 3947711503 heartbeat IPC: 0.05151 cumulative IPC: 0.10230 (Simulation time: 0 hr 38 min 59 sec) 
Heartbeat CPU  0 instructions:  498000000 cycles: 3958864939 heartbeat IPC: 0.08966 cumulative IPC: 0.10227 (Simulation time: 0 hr 39 min 4 sec) 
Heartbeat CPU  0 instructions:  499000002 cycles: 3968022406 heartbeat IPC: 0.10920 cumulative IPC: 0.10228 (Simulation time: 0 hr 39 min 9 sec) 
Heartbeat CPU  0 instructions:  500000000 cycles: 3975184304 heartbeat IPC: 0.13963 cumulative IPC: 0.10235 (Simulation time: 0 hr 39 min 14 sec) 
Heartbeat CPU  0 instructions:  501000000 cycles: 3987986556 heartbeat IPC: 0.07811 cumulative IPC: 0.10227 (Simulation time: 0 hr 39 min 22 sec) 
Heartbeat CPU  0 instructions:  502000000 cycles: 3992251694 heartbeat IPC: 0.23446 cumulative IPC: 0.10242 (Simulation time: 0 hr 39 min 26 sec) 
Heartbeat CPU  0 instructions:  503000003 cycles: 4016655647 heartbeat IPC: 0.04098 cumulative IPC: 0.10204 (Simulation time: 0 hr 39 min 38 sec) 
Heartbeat CPU  0 instructions:  504000000 cycles: 4024564579 heartbeat IPC: 0.12644 cumulative IPC: 0.10208 (Simulation time: 0 hr 39 min 43 sec) 
Heartbeat CPU  0 instructions:  505000000 cycles: 4026706806 heartbeat IPC: 0.46680 cumulative IPC: 0.10228 (Simulation time: 0 hr 39 min 44 sec) 
Heartbeat CPU  0 instructions:  506000000 cycles: 4033776722 heartbeat IPC: 0.14144 cumulative IPC: 0.10235 (Simulation time: 0 hr 39 min 48 sec) 
Heartbeat CPU  0 instructions:  507000002 cycles: 4052419151 heartbeat IPC: 0.05364 cumulative IPC: 0.10212 (Simulation time: 0 hr 39 min 56 sec) 
Heartbeat CPU  0 instructions:  508000000 cycles: 4064297218 heartbeat IPC: 0.08419 cumulative IPC: 0.10207 (Simulation time: 0 hr 40 min 1 sec) 
Heartbeat CPU  0 instructions:  509000001 cycles: 4073083218 heartbeat IPC: 0.11382 cumulative IPC: 0.10210 (Simulation time: 0 hr 40 min 7 sec) 
Heartbeat CPU  0 instructions:  510000003 cycles: 4080525204 heartbeat IPC: 0.13437 cumulative IPC: 0.10216 (Simulation time: 0 hr 40 min 12 sec) 
Heartbeat CPU  0 instructions:  511000000 cycles: 4092862174 heartbeat IPC: 0.08106 cumulative IPC: 0.10209 (Simulation time: 0 hr 40 min 19 sec) 
Heartbeat CPU  0 instructions:  512000000 cycles: 4097873593 heartbeat IPC: 0.19954 cumulative IPC: 0.10221 (Simulation time: 0 hr 40 min 23 sec) 
Heartbeat CPU  0 instructions:  513000001 cycles: 4122160241 heartbeat IPC: 0.04117 cumulative IPC: 0.10185 (Simulation time: 0 hr 40 min 36 sec) 
Heartbeat CPU  0 instructions:  514000000 cycles: 4129337321 heartbeat IPC: 0.13933 cumulative IPC: 0.10191 (Simulation time: 0 hr 40 min 40 sec) 
Heartbeat CPU  0 instructions:  515000001 cycles: 4131454290 heartbeat IPC: 0.47237 cumulative IPC: 0.10211 (Simulation time: 0 hr 40 min 42 sec) 
Heartbeat CPU  0 instructions:  516000000 cycles: 4139184394 heartbeat IPC: 0.12936 cumulative IPC: 0.10216 (Simulation time: 0 hr 40 min 46 sec) 
Heartbeat CPU  0 instructions:  517000001 cycles: 4157110983 heartbeat IPC: 0.05578 cumulative IPC: 0.10195 (Simulation time: 0 hr 40 min 54 sec) 
Heartbeat CPU  0 instructions:  518000000 cycles: 4169599861 heartbeat IPC: 0.08007 cumulative IPC: 0.10189 (Simulation time: 0 hr 40 min 59 sec) 
Heartbeat CPU  0 instructions:  519000002 cycles: 4178069709 heartbeat IPC: 0.11807 cumulative IPC: 0.10192 (Simulation time: 0 hr 41 min 4 sec) 
Heartbeat CPU  0 instructions:  520000000 cycles: 4185786743 heartbeat IPC: 0.12958 cumulative IPC: 0.10197 (Simulation time: 0 hr 41 min 9 sec) 
Heartbeat CPU  0 instructions:  521000000 cycles: 4197646335 heartbeat IPC: 0.08432 cumulative IPC: 0.10192 (Simulation time: 0 hr 41 min 16 sec) 
Heartbeat CPU  0 instructions:  522000001 cycles: 4203350407 heartbeat IPC: 0.17531 cumulative IPC: 0.10202 (Simulation time: 0 hr 41 min 21 sec) 
Heartbeat CPU  0 instructions:  523000002 cycles: 4227588582 heartbeat IPC: 0.04126 cumulative IPC: 0.10167 (Simulation time: 0 hr 41 min 33 sec) 
Heartbeat CPU  0 instructions:  524000000 cycles: 4234043946 heartbeat IPC: 0.15491 cumulative IPC: 0.10175 (Simulation time: 0 hr 41 min 37 sec) 
Heartbeat CPU  0 instructions:  525000003 cycles: 4236138349 heartbeat IPC: 0.47746 cumulative IPC: 0.10194 (Simulation time: 0 hr 41 min 39 sec) 
Heartbeat CPU  0 instructions:  526000002 cycles: 4244538249 heartbeat IPC: 0.11905 cumulative IPC: 0.10198 (Simulation time: 0 hr 41 min 43 sec) 
Heartbeat CPU  0 instructions:  527000001 cycles: 4261797676 heartbeat IPC: 0.05794 cumulative IPC: 0.10179 (Simulation time: 0 hr 41 min 51 sec) 
Heartbeat CPU  0 instructions:  528000000 cycles: 4274873133 heartbeat IPC: 0.07648 cumulative IPC: 0.10172 (Simulation time: 0 hr 41 min 56 sec) 
Heartbeat CPU  0 instructions:  529000001 cycles: 4283055311 heartbeat IPC: 0.12222 cumulative IPC: 0.10176 (Simulation time: 0 hr 42 min 1 sec) 
Heartbeat CPU  0 instructions:  530000001 cycles: 4291132427 heartbeat IPC: 0.12381 cumulative IPC: 0.10180 (Simulation time: 0 hr 42 min 7 sec) 
Heartbeat CPU  0 instructions:  531000000 cycles: 4302396107 heartbeat IPC: 0.08878 cumulative IPC: 0.10176 (Simulation time: 0 hr 42 min 13 sec) 
Heartbeat CPU  0 instructions:  532000000 cycles: 4308789408 heartbeat IPC: 0.15641 cumulative IPC: 0.10185 (Simulation time: 0 hr 42 min 18 sec) 
Heartbeat CPU  0 instructions:  533000000 cycles: 4333025130 heartbeat IPC: 0.04126 cumulative IPC: 0.10150 (Simulation time: 0 hr 42 min 30 sec) 
Heartbeat CPU  0 instructions:  534000001 cycles: 4338810620 heartbeat IPC: 0.17285 cumulative IPC: 0.10160 (Simulation time: 0 hr 42 min 34 sec) 
Heartbeat CPU  0 instructions:  535000003 cycles: 4340924810 heartbeat IPC: 0.47300 cumulative IPC: 0.10178 (Simulation time: 0 hr 42 min 35 sec) 
Heartbeat CPU  0 instructions:  536000000 cycles: 4349968425 heartbeat IPC: 0.11057 cumulative IPC: 0.10180 (Simulation time: 0 hr 42 min 40 sec) 
Heartbeat CPU  0 instructions:  537000001 cycles: 4366528007 heartbeat IPC: 0.06039 cumulative IPC: 0.10164 (Simulation time: 0 hr 42 min 47 sec) 
Heartbeat CPU  0 instructions:  538000002 cycles: 4380180085 heartbeat IPC: 0.07325 cumulative IPC: 0.10155 (Simulation time: 0 hr 42 min 53 sec) 
Heartbeat CPU  0 instructions:  539000000 cycles: 4387972886 heartbeat IPC: 0.12832 cumulative IPC: 0.10160 (Simulation time: 0 hr 42 min 58 sec) 
Heartbeat CPU  0 instructions:  540000000 cycles: 4396486625 heartbeat IPC: 0.11746 cumulative IPC: 0.10163 (Simulation time: 0 hr 43 min 4 sec) 
Heartbeat CPU  0 instructions:  541000002 cycles: 4407286787 heartbeat IPC: 0.09259 cumulative IPC: 0.10161 (Simulation time: 0 hr 43 min 11 sec) 
Heartbeat CPU  0 instructions:  542000000 cycles: 4414108750 heartbeat IPC: 0.14659 cumulative IPC: 0.10168 (Simulation time: 0 hr 43 min 16 sec) 
Heartbeat CPU  0 instructions:  543000003 cycles: 4438414259 heartbeat IPC: 0.04114 cumulative IPC: 0.10134 (Simulation time: 0 hr 43 min 28 sec) 
Heartbeat CPU  0 instructions:  544000000 cycles: 4443582633 heartbeat IPC: 0.19348 cumulative IPC: 0.10145 (Simulation time: 0 hr 43 min 31 sec) 
Heartbeat CPU  0 instructions:  545000000 cycles: 4445682519 heartbeat IPC: 0.47622 cumulative IPC: 0.10163 (Simulation time: 0 hr 43 min 33 sec) 
Heartbeat CPU  0 instructions:  546000002 cycles: 4455304189 heartbeat IPC: 0.10393 cumulative IPC: 0.10164 (Simulation time: 0 hr 43 min 38 sec) 
Heartbeat CPU  0 instructions:  547000001 cycles: 4471193823 heartbeat IPC: 0.06293 cumulative IPC: 0.10150 (Simulation time: 0 hr 43 min 45 sec) 
Heartbeat CPU  0 instructions:  548000000 cycles: 4485365552 heartbeat IPC: 0.07056 cumulative IPC: 0.10140 (Simulation time: 0 hr 43 min 51 sec) 
Heartbeat CPU  0 instructions:  549000001 cycles: 4492939486 heartbeat IPC: 0.13203 cumulative IPC: 0.10145 (Simulation time: 0 hr 43 min 56 sec) 
Heartbeat CPU  0 instructions:  550000002 cycles: 4497603323 heartbeat IPC: 0.21442 cumulative IPC: 0.10157 (Simulation time: 0 hr 44 min 0 sec) 
Heartbeat CPU  0 instructions:  551000002 cycles: 4512117546 heartbeat IPC: 0.06890 cumulative IPC: 0.10146 (Simulation time: 0 hr 44 min 6 sec) 
Heartbeat CPU  0 instructions:  552000000 cycles: 4526959954 heartbeat IPC: 0.06737 cumulative IPC: 0.10135 (Simulation time: 0 hr 44 min 14 sec) 
Heartbeat CPU  0 instructions:  553000000 cycles: 4542666285 heartbeat IPC: 0.06367 cumulative IPC: 0.10122 (Simulation time: 0 hr 44 min 24 sec) 
Heartbeat CPU  0 instructions:  554000003 cycles: 4552698749 heartbeat IPC: 0.09968 cumulative IPC: 0.10121 (Simulation time: 0 hr 44 min 29 sec) 
Heartbeat CPU  0 instructions:  555000003 cycles: 4561674574 heartbeat IPC: 0.11141 cumulative IPC: 0.10123 (Simulation time: 0 hr 44 min 34 sec) 
Heartbeat CPU  0 instructions:  556000000 cycles: 4570111882 heartbeat IPC: 0.11852 cumulative IPC: 0.10126 (Simulation time: 0 hr 44 min 39 sec) 
Heartbeat CPU  0 instructions:  557000000 cycles: 4577498678 heartbeat IPC: 0.13538 cumulative IPC: 0.10132 (Simulation time: 0 hr 44 min 43 sec) 
Heartbeat CPU  0 instructions:  558000001 cycles: 4581725650 heartbeat IPC: 0.23658 cumulative IPC: 0.10145 (Simulation time: 0 hr 44 min 46 sec) 
Heartbeat CPU  0 instructions:  559000000 cycles: 4585943992 heartbeat IPC: 0.23706 cumulative IPC: 0.10157 (Simulation time: 0 hr 44 min 49 sec) 
Heartbeat CPU  0 instructions:  560000000 cycles: 4589279320 heartbeat IPC: 0.29982 cumulative IPC: 0.10172 (Simulation time: 0 hr 44 min 52 sec) 
Heartbeat CPU  0 instructions:  561000001 cycles: 4592807868 heartbeat IPC: 0.28340 cumulative IPC: 0.10186 (Simulation time: 0 hr 44 min 55 sec) 
Heartbeat CPU  0 instructions:  562000000 cycles: 4596460359 heartbeat IPC: 0.27379 cumulative IPC: 0.10200 (Simulation time: 0 hr 44 min 58 sec) 
Heartbeat CPU  0 instructions:  563000002 cycles: 4602124327 heartbeat IPC: 0.17656 cumulative IPC: 0.10209 (Simulation time: 0 hr 45 min 3 sec) 
Heartbeat CPU  0 instructions:  564000000 cycles: 4607969356 heartbeat IPC: 0.17109 cumulative IPC: 0.10218 (Simulation time: 0 hr 45 min 7 sec) 
Heartbeat CPU  0 instructions:  565000002 cycles: 4616172062 heartbeat IPC: 0.12191 cumulative IPC: 0.10222 (Simulation time: 0 hr 45 min 12 sec) 
Heartbeat CPU  0 instructions:  566000003 cycles: 4626071344 heartbeat IPC: 0.10102 cumulative IPC: 0.10222 (Simulation time: 0 hr 45 min 18 sec) 
Heartbeat CPU  0 instructions:  567000000 cycles: 4633805247 heartbeat IPC: 0.12930 cumulative IPC: 0.10226 (Simulation time: 0 hr 45 min 23 sec) 
Heartbeat CPU  0 instructions:  568000000 cycles: 4639839296 heartbeat IPC: 0.16573 cumulative IPC: 0.10234 (Simulation time: 0 hr 45 min 27 sec) 
Heartbeat CPU  0 instructions:  569000000 cycles: 4652956107 heartbeat IPC: 0.07624 cumulative IPC: 0.10227 (Simulation time: 0 hr 45 min 36 sec) 
Heartbeat CPU  0 instructions:  570000002 cycles: 4659764617 heartbeat IPC: 0.14688 cumulative IPC: 0.10234 (Simulation time: 0 hr 45 min 40 sec) 
Heartbeat CPU  0 instructions:  571000000 cycles: 4676943001 heartbeat IPC: 0.05821 cumulative IPC: 0.10217 (Simulation time: 0 hr 45 min 50 sec) 
Heartbeat CPU  0 instructions:  572000000 cycles: 4692117308 heartbeat IPC: 0.06590 cumulative IPC: 0.10205 (Simulation time: 0 hr 45 min 58 sec) 
Heartbeat CPU  0 instructions:  573000002 cycles: 4694250563 heartbeat IPC: 0.46877 cumulative IPC: 0.10222 (Simulation time: 0 hr 46 min 0 sec) 
Heartbeat CPU  0 instructions:  574000002 cycles: 4696231422 heartbeat IPC: 0.50483 cumulative IPC: 0.10239 (Simulation time: 0 hr 46 min 1 sec) 
Heartbeat CPU  0 instructions:  575000000 cycles: 4715273923 heartbeat IPC: 0.05251 cumulative IPC: 0.10219 (Simulation time: 0 hr 46 min 9 sec) 
Heartbeat CPU  0 instructions:  576000000 cycles: 4724766461 heartbeat IPC: 0.10535 cumulative IPC: 0.10220 (Simulation time: 0 hr 46 min 14 sec) 
Heartbeat CPU  0 instructions:  577000000 cycles: 4737475275 heartbeat IPC: 0.07869 cumulative IPC: 0.10213 (Simulation time: 0 hr 46 min 20 sec) 
Heartbeat CPU  0 instructions:  578000002 cycles: 4745494485 heartbeat IPC: 0.12470 cumulative IPC: 0.10217 (Simulation time: 0 hr 46 min 25 sec) 
Heartbeat CPU  0 instructions:  579000002 cycles: 4766105020 heartbeat IPC: 0.04852 cumulative IPC: 0.10194 (Simulation time: 0 hr 46 min 37 sec) 
Heartbeat CPU  0 instructions:  580000000 cycles: 4773803632 heartbeat IPC: 0.12989 cumulative IPC: 0.10198 (Simulation time: 0 hr 46 min 42 sec) 
Heartbeat CPU  0 instructions:  581000000 cycles: 4783838622 heartbeat IPC: 0.09965 cumulative IPC: 0.10198 (Simulation time: 0 hr 46 min 48 sec) 
Heartbeat CPU  0 instructions:  582000002 cycles: 4807442985 heartbeat IPC: 0.04237 cumulative IPC: 0.10168 (Simulation time: 0 hr 47 min 0 sec) 
Heartbeat CPU  0 instructions:  583000000 cycles: 4809562194 heartbeat IPC: 0.47187 cumulative IPC: 0.10185 (Simulation time: 0 hr 47 min 2 sec) 
Heartbeat CPU  0 instructions:  584000000 cycles: 4811584530 heartbeat IPC: 0.49448 cumulative IPC: 0.10201 (Simulation time: 0 hr 47 min 4 sec) 
Heartbeat CPU  0 instructions:  585000000 cycles: 4823742825 heartbeat IPC: 0.08225 cumulative IPC: 0.10196 (Simulation time: 0 hr 47 min 9 sec) 
Heartbeat CPU  0 instructions:  586000000 cycles: 4837313450 heartbeat IPC: 0.07369 cumulative IPC: 0.10188 (Simulation time: 0 hr 47 min 16 sec) 
Heartbeat CPU  0 instructions:  587000002 cycles: 4852440539 heartbeat IPC: 0.06611 cumulative IPC: 0.10177 (Simulation time: 0 hr 47 min 22 sec) 
Heartbeat CPU  0 instructions:  588000000 cycles: 4859110568 heartbeat IPC: 0.14992 cumulative IPC: 0.10184 (Simulation time: 0 hr 47 min 26 sec) 
Heartbeat CPU  0 instructions:  589000001 cycles: 4868515725 heartbeat IPC: 0.10632 cumulative IPC: 0.10184 (Simulation time: 0 hr 47 min 33 sec) 
Heartbeat CPU  0 instructions:  590000000 cycles: 4877921766 heartbeat IPC: 0.10631 cumulative IPC: 0.10185 (Simulation time: 0 hr 47 min 39 sec) 
Heartbeat CPU  0 instructions:  591000001 cycles: 4885838296 heartbeat IPC: 0.12632 cumulative IPC: 0.10189 (Simulation time: 0 hr 47 min 44 sec) 
Heartbeat CPU  0 instructions:  592000000 cycles: 4910220201 heartbeat IPC: 0.04101 cumulative IPC: 0.10159 (Simulation time: 0 hr 47 min 57 sec) 
Heartbeat CPU  0 instructions:  593000003 cycles: 4914183536 heartbeat IPC: 0.25231 cumulative IPC: 0.10171 (Simulation time: 0 hr 47 min 59 sec) 
Heartbeat CPU  0 instructions:  594000003 cycles: 4916269164 heartbeat IPC: 0.47947 cumulative IPC: 0.10187 (Simulation time: 0 hr 48 min 1 sec) 
Heartbeat CPU  0 instructions:  595000003 cycles: 4926594132 heartbeat IPC: 0.09685 cumulative IPC: 0.10186 (Simulation time: 0 hr 48 min 6 sec) 
Heartbeat CPU  0 instructions:  596000000 cycles: 4941731169 heartbeat IPC: 0.06606 cumulative IPC: 0.10175 (Simulation time: 0 hr 48 min 13 sec) 
Heartbeat CPU  0 instructions:  597000002 cycles: 4955422478 heartbeat IPC: 0.07304 cumulative IPC: 0.10167 (Simulation time: 0 hr 48 min 18 sec) 
Heartbeat CPU  0 instructions:  598000001 cycles: 4963011849 heartbeat IPC: 0.13176 cumulative IPC: 0.10172 (Simulation time: 0 hr 48 min 23 sec) 
Heartbeat CPU  0 instructions:  599000003 cycles: 4973497129 heartbeat IPC: 0.09537 cumulative IPC: 0.10170 (Simulation time: 0 hr 48 min 31 sec) 
Heartbeat CPU  0 instructions:  600000000 cycles: 4982650439 heartbeat IPC: 0.10925 cumulative IPC: 0.10172 (Simulation time: 0 hr 48 min 36 sec) 
Finished CPU 0 instructions: 500000000 cycles: 4915579963 cumulative IPC: 0.10172 (Simulation time: 0 hr 48 min 36 sec) 

ChampSim completed all CPUs

[ROI Statistics]
Core_0_instructions 500000000
Core_0_cycles 4915579963
Core_0_IPC 0.10172

Core_0_branch_prediction_accuracy 95.09196
Core_0_branch_MPKI 8.72608
Core_0_average_ROB_occupancy_at_mispredict 84.72167

Core_0_L1D_total_access 102517776
Core_0_L1D_total_hit 75991021
Core_0_L1D_total_miss 26526755
Core_0_L1D_loads 77203385
Core_0_L1D_load_hit 54615415
Core_0_L1D_load_miss 22587970
Core_0_L1D_RFOs 25314391
Core_0_L1D_RFO_hit 21375606
Core_0_L1D_RFO_miss 3938785
Core_0_L1D_prefetches 0
Core_0_L1D_prefetch_hit 0
Core_0_L1D_prefetch_miss 0
Core_0_L1D_writebacks 0
Core_0_L1D_writeback_hit 0
Core_0_L1D_writeback_miss 0
Core_0_L1D_prefetch_requested 0
Core_0_L1D_prefetch_dropped 0
Core_0_L1D_prefetch_issued 0
Core_0_L1D_prefetch_filled 0
Core_0_L1D_prefetch_useful 0
Core_0_L1D_prefetch_useless 0
Core_0_L1D_prefetch_late 0
Core_0_L1D_average_miss_latency 852.84953

Core_0_L1D_rq_access 150234673
Core_0_L1D_rq_forward 0
Core_0_L1D_rq_merged 66119715
Core_0_L1D_rq_to_cache 84111528
Core_0_L1D_rq_full 0

Core_0_L1D_wq_access 35310153
Core_0_L1D_wq_forward 3430
Core_0_L1D_wq_merged 45513
Core_0_L1D_wq_to_cache 35264640
Core_0_L1D_wq_full 169189981

Core_0_L1D_pq_access 0
Core_0_L1D_pq_forward 0
Core_0_L1D_pq_merged 0
Core_0_L1D_pq_to_cache 0
Core_0_L1D_pq_full 0

Core_0_L1D_acc_epochs 4816412
Core_0_L1D_acc_level_0 4816412
Core_0_L1D_acc_level_1 0
Core_0_L1D_acc_level_2 0
Core_0_L1D_acc_level_3 0
Core_0_L1D_acc_level_4 0
Core_0_L1D_acc_level_5 0
Core_0_L1D_acc_level_6 0
Core_0_L1D_acc_level_7 0
Core_0_L1D_acc_level_8 0
Core_0_L1D_acc_level_9 0

Core_0_L1I_total_access 104979967
Core_0_L1I_total_hit 104976769
Core_0_L1I_total_miss 3198
Core_0_L1I_loads 104979967
Core_0_L1I_load_hit 104976769
Core_0_L1I_load_miss 3198
Core_0_L1I_RFOs 0
Core_0_L1I_RFO_hit 0
Core_0_L1I_RFO_miss 0
Core_0_L1I_prefetches 0
Core_0_L1I_prefetch_hit 0
Core_0_L1I_prefetch_miss 0
Core_0_L1I_writebacks 0
Core_0_L1I_writeback_hit 0
Core_0_L1I_writeback_miss 0
Core_0_L1I_prefetch_requested 0
Core_0_L1I_prefetch_dropped 0
Core_0_L1I_prefetch_issued 0
Core_0_L1I_prefetch_filled 0
Core_0_L1I_prefetch_useful 0
Core_0_L1I_prefetch_useless 0
Core_0_L1I_prefetch_late 0
Core_0_L1I_average_miss_latency 1338.06254

Core_0_L1I_rq_access 500000000
Core_0_L1I_rq_forward 0
Core_0_L1I_rq_merged 395016775
Core_0_L1I_rq_to_cache 104983225
Core_0_L1I_rq_full 0

Core_0_L1I_wq_access 0
Core_0_L1I_wq_forward 0
Core_0_L1I_wq_merged 0
Core_0_L1I_wq_to_cache 0
Core_0_L1I_wq_full 0

Core_0_L1I_pq_access 0
Core_0_L1I_pq_forward 0
Core_0_L1I_pq_merged 0
Core_0_L1I_pq_to_cache 0
Core_0_L1I_pq_full 0

Core_0_L1I_acc_epochs 4816412
Core_0_L1I_acc_level_0 4816412
Core_0_L1I_acc_level_1 0
Core_0_L1I_acc_level_2 0
Core_0_L1I_acc_level_3 0
Core_0_L1I_acc_level_4 0
Core_0_L1I_acc_level_5 0
Core_0_L1I_acc_level_6 0
Core_0_L1I_acc_level_7 0
Core_0_L1I_acc_level_8 0
Core_0_L1I_acc_level_9 0

Core_0_L2C_total_access 40943554
Core_0_L2C_total_hit 19084736
Core_0_L2C_total_miss 21858818
Core_0_L2C_loads 22589354
Core_0_L2C_load_hit 6383408
Core_0_L2C_load_miss 16205946
Core_0_L2C_RFOs 3938554
Core_0_L2C_RFO_hit 501769
Core_0_L2C_RFO_miss 3436785
Core_0_L2C_prefetches 3475539
Core_0_L2C_prefetch_hit 1260311
Core_0_L2C_prefetch_miss 2215228
Core_0_L2C_writebacks 10940107
Core_0_L2C_writeback_hit 10939248
Core_0_L2C_writeback_miss 859
Core_0_L2C_prefetch_requested 41225353
Core_0_L2C_prefetch_dropped 97
Core_0_L2C_prefetch_issued 41225256
Core_0_L2C_prefetch_filled 2861060
Core_0_L2C_prefetch_useful 2689222
Core_0_L2C_prefetch_useless 171828
Core_0_L2C_prefetch_late 738662
Core_0_L2C_average_miss_latency 1041.01257

Core_0_L2C_rq_access 26529953
Core_0_L2C_rq_forward 0
Core_0_L2C_rq_merged 0
Core_0_L2C_rq_to_cache 26527908
Core_0_L2C_rq_full 0

Core_0_L2C_wq_access 10940107
Core_0_L2C_wq_forward 2062
Core_0_L2C_wq_merged 0
Core_0_L2C_wq_to_cache 10940107
Core_0_L2C_wq_full 0

Core_0_L2C_pq_access 41225256
Core_0_L2C_pq_forward 0
Core_0_L2C_pq_merged 2911961
Core_0_L2C_pq_to_cache 38313278
Core_0_L2C_pq_full 0

Core_0_L2C_acc_epochs 4816412
Core_0_L2C_acc_level_0 3516833
Core_0_L2C_acc_level_1 241717
Core_0_L2C_acc_level_2 210219
Core_0_L2C_acc_level_3 95912
Core_0_L2C_acc_level_4 55576
Core_0_L2C_acc_level_5 191773
Core_0_L2C_acc_level_6 65371
Core_0_L2C_acc_level_7 66175
Core_0_L2C_acc_level_8 63724
Core_0_L2C_acc_level_9 309112

Core_0_LLC_total_access 47451270
Core_0_LLC_total_hit 28831060
Core_0_LLC_total_miss 18620210
Core_0_LLC_loads 15468362
Core_0_LLC_load_hit 7064582
Core_0_LLC_load_miss 8403780
Core_0_LLC_RFOs 3436764
Core_0_LLC_RFO_hit 869670
Core_0_LLC_RFO_miss 2567094
Core_0_LLC_prefetches 20454022
Core_0_LLC_prefetch_hit 14280762
Core_0_LLC_prefetch_miss 6173260
Core_0_LLC_writebacks 8092122
Core_0_LLC_writeback_hit 6616046
Core_0_LLC_writeback_miss 1476076
Core_0_LLC_prefetch_requested 0
Core_0_LLC_prefetch_dropped 0
Core_0_LLC_prefetch_issued 0
Core_0_LLC_prefetch_filled 7992498
Core_0_LLC_prefetch_useful 3758637
Core_0_LLC_prefetch_useless 4226507
Core_0_LLC_prefetch_late 1635446
Core_0_LLC_average_miss_latency 1776.27625

Core_0_LLC_rq_access 18905269
Core_0_LLC_rq_forward 0
Core_0_LLC_rq_merged 0
Core_0_LLC_rq_to_cache 18905126
Core_0_LLC_rq_full 0

Core_0_LLC_wq_access 8092122
Core_0_LLC_wq_forward 144
Core_0_LLC_wq_merged 0
Core_0_LLC_wq_to_cache 8092122
Core_0_LLC_wq_full 44414

Core_0_LLC_pq_access 35287747
Core_0_LLC_pq_forward 0
Core_0_LLC_pq_merged 942445
Core_0_LLC_pq_to_cache 34345301
Core_0_LLC_pq_full 0

Core_0_LLC_acc_epochs 4865870
Core_0_LLC_acc_level_0 2596889
Core_0_LLC_acc_level_1 518235
Core_0_LLC_acc_level_2 434351
Core_0_LLC_acc_level_3 245039
Core_0_LLC_acc_level_4 119369
Core_0_LLC_acc_level_5 318871
Core_0_LLC_acc_level_6 122421
Core_0_LLC_acc_level_7 104135
Core_0_LLC_acc_level_8 63920
Core_0_LLC_acc_level_9 342640

Core_0_major_page_fault 0
Core_0_minor_page_fault 12989

spp.pref.total 41225353
spp.pref.at_L2 4080062
spp.pref.at_LLC 37145291

spp.depth.max 11
spp.depth.min 0
spp.depth.avg 1

spp.breadth.max 2
spp.breadth.min 0
spp.breadth.avg 0

delta_1 29477826
delta_-1 11514231
delta_2 512964
delta_-2 110626
delta_3 59636
delta_-3 52623
delta_-4 21189
delta_10 14965
delta_14 8998
delta_4 3309
delta_7 3303
delta_6 3092
delta_8 2802
delta_11 2069
delta_9 1622
delta_15 1530
delta_5 633
delta_-5 507
delta_-33 375
delta_-12 238
delta_-20 205
delta_33 184
delta_-6 46
delta_17 39
delta_13 31
delta_-11 18
delta_-26 4
delta_-7 3
delta_-9 3
delta_-34 3
delta_16 2
delta_12 2
delta_-14 1
delta_34 1
delta_29 1
delta_-16 1

depth_1_delta_1 8539764
depth_1_delta_-1 3719164
depth_1_delta_2 398638
depth_1_delta_-2 101866
depth_1_delta_-3 46407
depth_1_delta_3 39164
depth_1_delta_-4 20071
depth_1_delta_10 10757
depth_1_delta_14 5119
depth_1_delta_4 3309
depth_1_delta_6 2214
depth_1_delta_7 1979
depth_1_delta_8 1934
depth_1_delta_15 1478
depth_1_delta_9 1353
depth_1_delta_11 1043
depth_1_delta_5 589
depth_1_delta_-5 507
depth_1_delta_-33 375
depth_1_delta_-12 238
depth_1_delta_-20 205
depth_1_delta_33 184
depth_1_delta_-6 46
depth_1_delta_17 39
depth_1_delta_13 31
depth_1_delta_-11 18
depth_1_delta_-26 4
depth_1_delta_-7 3
depth_1_delta_-9 3
depth_1_delta_-34 3
depth_1_delta_16 2
depth_1_delta_12 2
depth_1_delta_-14 1
depth_1_delta_34 1
depth_1_delta_29 1
depth_1_delta_-16 1
depth_2_delta_1 5798629
depth_2_delta_-1 2857026
depth_2_delta_2 88174
depth_2_delta_3 16840
depth_2_delta_-2 6893
depth_2_delta_-3 4596
depth_2_delta_14 3141
depth_2_delta_10 3102
depth_2_delta_-4 1118
depth_2_delta_7 988
depth_2_delta_11 738
depth_2_delta_6 672
depth_2_delta_8 544
depth_2_delta_9 261
depth_2_delta_15 52
depth_2_delta_5 44
depth_3_delta_1 4214727
depth_3_delta_-1 2059148
depth_3_delta_2 21765
depth_3_delta_3 3496
depth_3_delta_-2 1010
depth_3_delta_10 830
depth_3_delta_-3 655
depth_3_delta_14 540
depth_3_delta_7 264
depth_3_delta_8 228
depth_3_delta_11 198
depth_3_delta_6 147
depth_3_delta_9 8
depth_4_delta_1 3254852
depth_4_delta_-1 1490650
depth_4_delta_2 4037
depth_4_delta_-3 416
depth_4_delta_-2 372
depth_4_delta_10 232
depth_4_delta_14 176
depth_4_delta_3 136
depth_4_delta_11 79
depth_4_delta_8 70
depth_4_delta_7 64
depth_4_delta_6 52
depth_5_delta_1 2478898
depth_5_delta_-1 793749
depth_5_delta_2 350
depth_5_delta_-3 261
depth_5_delta_-2 231
depth_5_delta_10 44
depth_5_delta_8 22
depth_5_delta_14 21
depth_5_delta_11 10
depth_5_delta_7 8
depth_5_delta_6 7
depth_6_delta_1 1908477
depth_6_delta_-1 343349
depth_6_delta_-3 163
depth_6_delta_-2 139
depth_6_delta_8 4
depth_6_delta_11 1
depth_6_delta_14 1
depth_7_delta_1 1430650
depth_7_delta_-1 130650
depth_7_delta_-3 82
depth_7_delta_-2 76
depth_8_delta_1 1090362
depth_8_delta_-1 72370
depth_8_delta_-3 36
depth_8_delta_-2 32
depth_9_delta_1 585988
depth_9_delta_-1 38272
depth_9_delta_-2 7
depth_9_delta_-3 6
depth_10_delta_1 173794
depth_10_delta_-1 9839
depth_10_delta_-3 1
depth_11_delta_1 1685
depth_11_delta_-1 14

Channel_0_RQ_row_buffer_hit 4540785
Channel_0_RQ_row_buffer_miss 12595826
Channel_0_WQ_row_buffer_hit 1281841
Channel_0_WQ_row_buffer_miss 3868953
Channel_0_WQ_full 284896
Channel_0_dbus_congested 22649957

avg_congested_cycle 196

DRAM_bw_pochs 19463479
DRAM_bw_level_0 8899699
DRAM_bw_level_1 0
DRAM_bw_level_2 0
DRAM_bw_level_3 10563780
