*************************************************
   ChampSim Multicore Out-of-Order Simulator
   Last compiled: Dec 11 2024 17:59:53
*************************************************
parsing config file: /home/functionmain/桌面/Pythia/config/spp_dev2.ini

trace_0 /home/functionmain/桌面/Pythia/traces/450.soplex-247B.champsimtrace.xz
adding L2C_PREFETCHER: SPP_dev2
Initialize SIGNATURE TABLE
ST_SET: 1
ST_WAY: 256
ST_TAG_BIT: 16
ST_TAG_MASK: ffff

Initialize PATTERN TABLE
PT_SET: 512
PT_WAY: 4
SIG_DELTA_BIT: 7
C_SIG_BIT: 4
C_DELTA_BIT: 4

Initialize PREFETCH FILTER
FILTER_SET: 1024
fill_threshold: 90
pf_threshold: 40

Initialize SHIP state
warmup_instructions 100000000
simulation_instructions 500000000
champsim_seed 223
measure_ipc 0
measure_ipc_epoch 1000
measure_dram_bw 1
measure_dram_bw_epoch 256
measure_cache_acc 1
measure_cache_acc_epoch 1024
l1d_perfect 0
l2c_perfect 0
llc_perfect 0
l1d_semi_perfect 0
l2c_semi_perfect 0
llc_semi_perfect 0
semi_perfect_cache_page_buffer_size 64

num_cpus 1
cpu_freq 4000
dram_io_freq 300
page_size 4096
block_size 64
max_read_per_cycle 8
max_fill_per_cycle 1
dram_channels 1
log2_dram_channels 0
dram_ranks 1
dram_banks 8
dram_rows 65536
dram_columns 128
dram_row_size 8
dram_size 4096
dram_pages 1048576

fetch_width 6
decode_width 6
exec_width 4
lq_width 2
sq_width 2
retire_width 4
scheduler_size 128
branch_mispredict_penalty 20
rob_size 256
lq_size 72
sq_size 56
num_instr_destinations_sparc 4
num_instr_destinations 2
num_instr_sources 4

itlb_set 16
itlb_way 8
itlb_rq_size 16
itlb_wq_size 16
itlb_pq_size 0
itlb_mshr_size 8
itlb_latency 1

dtlb_set 16
dtlb_way 4
dtlb_rq_size 16
dtlb_wq_size 16
dtlb_pq_size 0
dtlb_mshr_size 8
dtlb_latency 1

stlb_set 128
stlb_way 12
stlb_rq_size 32
stlb_wq_size 32
stlb_pq_size 0
stlb_mshr_size 16
stlb_latency 8

l1i_size 32
l1i_set 64
l1i_way 8
l1i_rq_size 64
l1i_wq_size 64
l1i_pq_size 8
l1i_mshr_size 8
l1i_latency 1

l1d_size 32
l1d_set 64
l1d_way 8
l1d_rq_size 64
l1d_wq_size 64
l1d_pq_size 8
l1d_mshr_size 16
l1d_latency 4

l2c_size 256
l2c_set 512
l2c_way 8
l2c_rq_size 32
l2c_wq_size 32
l2c_pq_size 32
l2c_mshr_size 32
l2c_latency 10

llc_size 2048
llc_set 2048
llc_way 16
llc_rq_size 32
llc_wq_size 32
llc_pq_size 32
llc_mshr_size 64
llc_latency 20

dram_channel_width 8
dram_wq_size 64
dram_rq_size 64
tRP 15
tRCD 15
tCAS 12.5
dram_dbus_turn_around_time 30
dram_write_high_wm 56
dram_write_low_wm 48
min_dram_writes_per_switch 16
dram_mtps 300
dram_dbus_return_time 106


Heartbeat CPU  0 instructions:    1000002 cycles:     760685 heartbeat IPC: 1.31461 cumulative IPC: 1.31461 (Simulation time: 0 hr 0 min 2 sec) 
Heartbeat CPU  0 instructions:    2000001 cycles:    1404177 heartbeat IPC: 1.55402 cumulative IPC: 1.42432 (Simulation time: 0 hr 0 min 4 sec) 
Heartbeat CPU  0 instructions:    3000001 cycles:    2129371 heartbeat IPC: 1.37894 cumulative IPC: 1.40887 (Simulation time: 0 hr 0 min 6 sec) 
Heartbeat CPU  0 instructions:    4000000 cycles:    2670832 heartbeat IPC: 1.84685 cumulative IPC: 1.49766 (Simulation time: 0 hr 0 min 8 sec) 
Heartbeat CPU  0 instructions:    5000000 cycles:    3577116 heartbeat IPC: 1.10341 cumulative IPC: 1.39777 (Simulation time: 0 hr 0 min 10 sec) 
Heartbeat CPU  0 instructions:    6000001 cycles:    4469636 heartbeat IPC: 1.12042 cumulative IPC: 1.34239 (Simulation time: 0 hr 0 min 13 sec) 
Heartbeat CPU  0 instructions:    7000000 cycles:    5268988 heartbeat IPC: 1.25101 cumulative IPC: 1.32853 (Simulation time: 0 hr 0 min 15 sec) 
Heartbeat CPU  0 instructions:    8000000 cycles:    5961699 heartbeat IPC: 1.44360 cumulative IPC: 1.34190 (Simulation time: 0 hr 0 min 17 sec) 
Heartbeat CPU  0 instructions:    9000001 cycles:    6578298 heartbeat IPC: 1.62180 cumulative IPC: 1.36814 (Simulation time: 0 hr 0 min 19 sec) 
Heartbeat CPU  0 instructions:   10000000 cycles:    7123417 heartbeat IPC: 1.83446 cumulative IPC: 1.40382 (Simulation time: 0 hr 0 min 21 sec) 
Heartbeat CPU  0 instructions:   11000001 cycles:    7717984 heartbeat IPC: 1.68190 cumulative IPC: 1.42524 (Simulation time: 0 hr 0 min 24 sec) 
Heartbeat CPU  0 instructions:   12000000 cycles:    8398035 heartbeat IPC: 1.47048 cumulative IPC: 1.42891 (Simulation time: 0 hr 0 min 26 sec) 
Heartbeat CPU  0 instructions:   13000000 cycles:    9278934 heartbeat IPC: 1.13520 cumulative IPC: 1.40102 (Simulation time: 0 hr 0 min 27 sec) 
Heartbeat CPU  0 instructions:   14000002 cycles:   10027289 heartbeat IPC: 1.33627 cumulative IPC: 1.39619 (Simulation time: 0 hr 0 min 29 sec) 
Heartbeat CPU  0 instructions:   15000000 cycles:   10632383 heartbeat IPC: 1.65263 cumulative IPC: 1.41078 (Simulation time: 0 hr 0 min 30 sec) 
Heartbeat CPU  0 instructions:   16000000 cycles:   11161880 heartbeat IPC: 1.88858 cumulative IPC: 1.43345 (Simulation time: 0 hr 0 min 32 sec) 
Heartbeat CPU  0 instructions:   17000000 cycles:   11974073 heartbeat IPC: 1.23123 cumulative IPC: 1.41973 (Simulation time: 0 hr 0 min 35 sec) 
Heartbeat CPU  0 instructions:   18000001 cycles:   12583060 heartbeat IPC: 1.64207 cumulative IPC: 1.43049 (Simulation time: 0 hr 0 min 37 sec) 
Heartbeat CPU  0 instructions:   19000001 cycles:   13121688 heartbeat IPC: 1.85657 cumulative IPC: 1.44798 (Simulation time: 0 hr 0 min 39 sec) 
Heartbeat CPU  0 instructions:   20000000 cycles:   13720660 heartbeat IPC: 1.66953 cumulative IPC: 1.45766 (Simulation time: 0 hr 0 min 41 sec) 
Heartbeat CPU  0 instructions:   21000001 cycles:   14382014 heartbeat IPC: 1.51205 cumulative IPC: 1.46016 (Simulation time: 0 hr 0 min 43 sec) 
Heartbeat CPU  0 instructions:   22000003 cycles:   15260961 heartbeat IPC: 1.13773 cumulative IPC: 1.44159 (Simulation time: 0 hr 0 min 45 sec) 
Heartbeat CPU  0 instructions:   23000001 cycles:   16027836 heartbeat IPC: 1.30399 cumulative IPC: 1.43500 (Simulation time: 0 hr 0 min 47 sec) 
Heartbeat CPU  0 instructions:   24000000 cycles:   16629716 heartbeat IPC: 1.66146 cumulative IPC: 1.44320 (Simulation time: 0 hr 0 min 48 sec) 
Heartbeat CPU  0 instructions:   25000000 cycles:   17173480 heartbeat IPC: 1.83903 cumulative IPC: 1.45573 (Simulation time: 0 hr 0 min 51 sec) 
Heartbeat CPU  0 instructions:   26000001 cycles:   17973375 heartbeat IPC: 1.25017 cumulative IPC: 1.44658 (Simulation time: 0 hr 0 min 53 sec) 
Heartbeat CPU  0 instructions:   27000003 cycles:   18550738 heartbeat IPC: 1.73202 cumulative IPC: 1.45547 (Simulation time: 0 hr 0 min 55 sec) 
Heartbeat CPU  0 instructions:   28000000 cycles:   19107057 heartbeat IPC: 1.79752 cumulative IPC: 1.46543 (Simulation time: 0 hr 0 min 57 sec) 
Heartbeat CPU  0 instructions:   29000002 cycles:   19663490 heartbeat IPC: 1.79717 cumulative IPC: 1.47481 (Simulation time: 0 hr 0 min 59 sec) 
Heartbeat CPU  0 instructions:   30000001 cycles:   20254849 heartbeat IPC: 1.69102 cumulative IPC: 1.48113 (Simulation time: 0 hr 1 min 1 sec) 
Heartbeat CPU  0 instructions:   31000002 cycles:   21123978 heartbeat IPC: 1.15058 cumulative IPC: 1.46753 (Simulation time: 0 hr 1 min 2 sec) 
Heartbeat CPU  0 instructions:   32000000 cycles:   21944856 heartbeat IPC: 1.21821 cumulative IPC: 1.45820 (Simulation time: 0 hr 1 min 4 sec) 
Heartbeat CPU  0 instructions:   33000000 cycles:   22544474 heartbeat IPC: 1.66773 cumulative IPC: 1.46377 (Simulation time: 0 hr 1 min 5 sec) 
Heartbeat CPU  0 instructions:   34000000 cycles:   23164909 heartbeat IPC: 1.61177 cumulative IPC: 1.46774 (Simulation time: 0 hr 1 min 7 sec) 
Heartbeat CPU  0 instructions:   35000000 cycles:   23890194 heartbeat IPC: 1.37877 cumulative IPC: 1.46504 (Simulation time: 0 hr 1 min 9 sec) 
Heartbeat CPU  0 instructions:   36000000 cycles:   24498939 heartbeat IPC: 1.64272 cumulative IPC: 1.46945 (Simulation time: 0 hr 1 min 12 sec) 
Heartbeat CPU  0 instructions:   37000002 cycles:   25037972 heartbeat IPC: 1.85518 cumulative IPC: 1.47776 (Simulation time: 0 hr 1 min 14 sec) 
Heartbeat CPU  0 instructions:   38000002 cycles:   25604558 heartbeat IPC: 1.76496 cumulative IPC: 1.48411 (Simulation time: 0 hr 1 min 16 sec) 
Heartbeat CPU  0 instructions:   39000000 cycles:   26189035 heartbeat IPC: 1.71093 cumulative IPC: 1.48917 (Simulation time: 0 hr 1 min 18 sec) 
Heartbeat CPU  0 instructions:   40000000 cycles:   26966168 heartbeat IPC: 1.28678 cumulative IPC: 1.48334 (Simulation time: 0 hr 1 min 20 sec) 
Heartbeat CPU  0 instructions:   41000001 cycles:   27832313 heartbeat IPC: 1.15454 cumulative IPC: 1.47311 (Simulation time: 0 hr 1 min 21 sec) 
Heartbeat CPU  0 instructions:   42000001 cycles:   28483618 heartbeat IPC: 1.53538 cumulative IPC: 1.47453 (Simulation time: 0 hr 1 min 23 sec) 
Heartbeat CPU  0 instructions:   43000000 cycles:   29127309 heartbeat IPC: 1.55354 cumulative IPC: 1.47628 (Simulation time: 0 hr 1 min 24 sec) 
Heartbeat CPU  0 instructions:   44000000 cycles:   29753243 heartbeat IPC: 1.59761 cumulative IPC: 1.47883 (Simulation time: 0 hr 1 min 26 sec) 
Heartbeat CPU  0 instructions:   45000000 cycles:   30487191 heartbeat IPC: 1.36249 cumulative IPC: 1.47603 (Simulation time: 0 hr 1 min 29 sec) 
Heartbeat CPU  0 instructions:   46000001 cycles:   31026087 heartbeat IPC: 1.85565 cumulative IPC: 1.48262 (Simulation time: 0 hr 1 min 31 sec) 
Heartbeat CPU  0 instructions:   47000000 cycles:   31585326 heartbeat IPC: 1.78814 cumulative IPC: 1.48803 (Simulation time: 0 hr 1 min 33 sec) 
Heartbeat CPU  0 instructions:   48000000 cycles:   32174415 heartbeat IPC: 1.69754 cumulative IPC: 1.49187 (Simulation time: 0 hr 1 min 35 sec) 
Heartbeat CPU  0 instructions:   49000001 cycles:   32916755 heartbeat IPC: 1.34709 cumulative IPC: 1.48860 (Simulation time: 0 hr 1 min 37 sec) 
Heartbeat CPU  0 instructions:   50000001 cycles:   33784995 heartbeat IPC: 1.15176 cumulative IPC: 1.47995 (Simulation time: 0 hr 1 min 38 sec) 
Heartbeat CPU  0 instructions:   51000003 cycles:   34479092 heartbeat IPC: 1.44072 cumulative IPC: 1.47916 (Simulation time: 0 hr 1 min 39 sec) 
Heartbeat CPU  0 instructions:   52000000 cycles:   35089541 heartbeat IPC: 1.63813 cumulative IPC: 1.48192 (Simulation time: 0 hr 1 min 41 sec) 
Heartbeat CPU  0 instructions:   53000000 cycles:   35669080 heartbeat IPC: 1.72551 cumulative IPC: 1.48588 (Simulation time: 0 hr 1 min 43 sec) 
Heartbeat CPU  0 instructions:   54000002 cycles:   36437106 heartbeat IPC: 1.30204 cumulative IPC: 1.48201 (Simulation time: 0 hr 1 min 46 sec) 
Heartbeat CPU  0 instructions:   55000001 cycles:   37012703 heartbeat IPC: 1.73732 cumulative IPC: 1.48598 (Simulation time: 0 hr 1 min 48 sec) 
Heartbeat CPU  0 instructions:   56000000 cycles:   37565538 heartbeat IPC: 1.80886 cumulative IPC: 1.49073 (Simulation time: 0 hr 1 min 50 sec) 
Heartbeat CPU  0 instructions:   57000002 cycles:   38156466 heartbeat IPC: 1.69226 cumulative IPC: 1.49385 (Simulation time: 0 hr 1 min 52 sec) 
Heartbeat CPU  0 instructions:   58000001 cycles:   38891976 heartbeat IPC: 1.35960 cumulative IPC: 1.49131 (Simulation time: 0 hr 1 min 54 sec) 
Heartbeat CPU  0 instructions:   59000001 cycles:   39762408 heartbeat IPC: 1.14885 cumulative IPC: 1.48381 (Simulation time: 0 hr 1 min 55 sec) 
Heartbeat CPU  0 instructions:   60000000 cycles:   40481879 heartbeat IPC: 1.38991 cumulative IPC: 1.48214 (Simulation time: 0 hr 1 min 57 sec) 
Heartbeat CPU  0 instructions:   61000003 cycles:   41101146 heartbeat IPC: 1.61482 cumulative IPC: 1.48414 (Simulation time: 0 hr 1 min 58 sec) 
Heartbeat CPU  0 instructions:   62000001 cycles:   41671732 heartbeat IPC: 1.75258 cumulative IPC: 1.48782 (Simulation time: 0 hr 2 min 0 sec) 
Heartbeat CPU  0 instructions:   63000000 cycles:   42465856 heartbeat IPC: 1.25925 cumulative IPC: 1.48354 (Simulation time: 0 hr 2 min 2 sec) 
Heartbeat CPU  0 instructions:   64000000 cycles:   43058034 heartbeat IPC: 1.68868 cumulative IPC: 1.48637 (Simulation time: 0 hr 2 min 5 sec) 
Heartbeat CPU  0 instructions:   65000003 cycles:   43607900 heartbeat IPC: 1.81863 cumulative IPC: 1.49056 (Simulation time: 0 hr 2 min 6 sec) 
Heartbeat CPU  0 instructions:   66000002 cycles:   44198132 heartbeat IPC: 1.69425 cumulative IPC: 1.49328 (Simulation time: 0 hr 2 min 9 sec) 
Heartbeat CPU  0 instructions:   67000000 cycles:   44889247 heartbeat IPC: 1.44693 cumulative IPC: 1.49256 (Simulation time: 0 hr 2 min 10 sec) 
Heartbeat CPU  0 instructions:   68000000 cycles:   45765190 heartbeat IPC: 1.14163 cumulative IPC: 1.48585 (Simulation time: 0 hr 2 min 12 sec) 
Heartbeat CPU  0 instructions:   69000001 cycles:   46516941 heartbeat IPC: 1.33023 cumulative IPC: 1.48333 (Simulation time: 0 hr 2 min 13 sec) 
Heartbeat CPU  0 instructions:   70000000 cycles:   47134954 heartbeat IPC: 1.61809 cumulative IPC: 1.48510 (Simulation time: 0 hr 2 min 15 sec) 
Heartbeat CPU  0 instructions:   71000002 cycles:   47669294 heartbeat IPC: 1.87147 cumulative IPC: 1.48943 (Simulation time: 0 hr 2 min 17 sec) 
Heartbeat CPU  0 instructions:   72000000 cycles:   48476893 heartbeat IPC: 1.23824 cumulative IPC: 1.48524 (Simulation time: 0 hr 2 min 20 sec) 
Heartbeat CPU  0 instructions:   73000001 cycles:   49076971 heartbeat IPC: 1.66645 cumulative IPC: 1.48746 (Simulation time: 0 hr 2 min 22 sec) 
Heartbeat CPU  0 instructions:   74000002 cycles:   49620366 heartbeat IPC: 1.84028 cumulative IPC: 1.49132 (Simulation time: 0 hr 2 min 24 sec) 
Heartbeat CPU  0 instructions:   75000003 cycles:   50219341 heartbeat IPC: 1.66952 cumulative IPC: 1.49345 (Simulation time: 0 hr 2 min 27 sec) 
Heartbeat CPU  0 instructions:   76000000 cycles:   50876174 heartbeat IPC: 1.52245 cumulative IPC: 1.49382 (Simulation time: 0 hr 2 min 30 sec) 
Heartbeat CPU  0 instructions:   77000001 cycles:   51749308 heartbeat IPC: 1.14530 cumulative IPC: 1.48794 (Simulation time: 0 hr 2 min 32 sec) 
Heartbeat CPU  0 instructions:   78000001 cycles:   52523128 heartbeat IPC: 1.29229 cumulative IPC: 1.48506 (Simulation time: 0 hr 2 min 34 sec) 
Heartbeat CPU  0 instructions:   79000003 cycles:   53139464 heartbeat IPC: 1.62249 cumulative IPC: 1.48665 (Simulation time: 0 hr 2 min 36 sec) 
Heartbeat CPU  0 instructions:   80000000 cycles:   53707284 heartbeat IPC: 1.76112 cumulative IPC: 1.48956 (Simulation time: 0 hr 2 min 39 sec) 
Heartbeat CPU  0 instructions:   81000001 cycles:   54495655 heartbeat IPC: 1.26844 cumulative IPC: 1.48636 (Simulation time: 0 hr 2 min 41 sec) 
Heartbeat CPU  0 instructions:   82000002 cycles:   55110885 heartbeat IPC: 1.62541 cumulative IPC: 1.48791 (Simulation time: 0 hr 2 min 44 sec) 
Heartbeat CPU  0 instructions:   83000003 cycles:   55671238 heartbeat IPC: 1.78459 cumulative IPC: 1.49090 (Simulation time: 0 hr 2 min 46 sec) 
Heartbeat CPU  0 instructions:   84000000 cycles:   56225531 heartbeat IPC: 1.80409 cumulative IPC: 1.49398 (Simulation time: 0 hr 2 min 49 sec) 
Heartbeat CPU  0 instructions:   85000001 cycles:   56816408 heartbeat IPC: 1.69240 cumulative IPC: 1.49605 (Simulation time: 0 hr 2 min 51 sec) 
Heartbeat CPU  0 instructions:   86000000 cycles:   57689157 heartbeat IPC: 1.14580 cumulative IPC: 1.49075 (Simulation time: 0 hr 2 min 52 sec) 
Heartbeat CPU  0 instructions:   87000000 cycles:   58516105 heartbeat IPC: 1.20927 cumulative IPC: 1.48677 (Simulation time: 0 hr 2 min 54 sec) 
Heartbeat CPU  0 instructions:   88000000 cycles:   59135619 heartbeat IPC: 1.61417 cumulative IPC: 1.48810 (Simulation time: 0 hr 2 min 55 sec) 
Heartbeat CPU  0 instructions:   89000003 cycles:   59779905 heartbeat IPC: 1.55211 cumulative IPC: 1.48879 (Simulation time: 0 hr 2 min 57 sec) 
Heartbeat CPU  0 instructions:   90000003 cycles:   60475263 heartbeat IPC: 1.43811 cumulative IPC: 1.48821 (Simulation time: 0 hr 3 min 0 sec) 
Heartbeat CPU  0 instructions:   91000001 cycles:   61152307 heartbeat IPC: 1.47701 cumulative IPC: 1.48809 (Simulation time: 0 hr 3 min 3 sec) 
Heartbeat CPU  0 instructions:   92000000 cycles:   61724025 heartbeat IPC: 1.74911 cumulative IPC: 1.49051 (Simulation time: 0 hr 3 min 6 sec) 
Heartbeat CPU  0 instructions:   93000003 cycles:   62269690 heartbeat IPC: 1.83263 cumulative IPC: 1.49350 (Simulation time: 0 hr 3 min 9 sec) 
Heartbeat CPU  0 instructions:   94000002 cycles:   62861777 heartbeat IPC: 1.68894 cumulative IPC: 1.49534 (Simulation time: 0 hr 3 min 11 sec) 
Heartbeat CPU  0 instructions:   95000003 cycles:   63699427 heartbeat IPC: 1.19382 cumulative IPC: 1.49138 (Simulation time: 0 hr 3 min 13 sec) 
Heartbeat CPU  0 instructions:   96000000 cycles:   64547250 heartbeat IPC: 1.17949 cumulative IPC: 1.48728 (Simulation time: 0 hr 3 min 14 sec) 
Heartbeat CPU  0 instructions:   97000002 cycles:   65182457 heartbeat IPC: 1.57429 cumulative IPC: 1.48813 (Simulation time: 0 hr 3 min 16 sec) 
Heartbeat CPU  0 instructions:   98000003 cycles:   65832211 heartbeat IPC: 1.53905 cumulative IPC: 1.48863 (Simulation time: 0 hr 3 min 18 sec) 
Heartbeat CPU  0 instructions:   99000002 cycles:   66485667 heartbeat IPC: 1.53032 cumulative IPC: 1.48904 (Simulation time: 0 hr 3 min 20 sec) 
Heartbeat CPU  0 instructions:  100000000 cycles:   67070489 heartbeat IPC: 1.70992 cumulative IPC: 1.49097 (Simulation time: 0 hr 3 min 22 sec) 

Warmup complete CPU  0 instructions:  100000002 cycles:   67070491 (Simulation time: 0 hr 3 min 22 sec) 

Heartbeat CPU  0 instructions:  101000001 cycles:   77147837 heartbeat IPC: 0.09923 cumulative IPC: 0.09923 (Simulation time: 0 hr 3 min 29 sec) 
Heartbeat CPU  0 instructions:  102000001 cycles:   84930350 heartbeat IPC: 0.12849 cumulative IPC: 0.11198 (Simulation time: 0 hr 3 min 36 sec) 
Heartbeat CPU  0 instructions:  103000001 cycles:   93296807 heartbeat IPC: 0.11952 cumulative IPC: 0.11439 (Simulation time: 0 hr 3 min 44 sec) 
Heartbeat CPU  0 instructions:  104000000 cycles:   99407836 heartbeat IPC: 0.16364 cumulative IPC: 0.12370 (Simulation time: 0 hr 3 min 49 sec) 
Heartbeat CPU  0 instructions:  105000003 cycles:  104597642 heartbeat IPC: 0.19269 cumulative IPC: 0.13324 (Simulation time: 0 hr 3 min 54 sec) 
Heartbeat CPU  0 instructions:  106000001 cycles:  109433558 heartbeat IPC: 0.20679 cumulative IPC: 0.14163 (Simulation time: 0 hr 3 min 59 sec) 
Heartbeat CPU  0 instructions:  107000003 cycles:  114724405 heartbeat IPC: 0.18901 cumulative IPC: 0.14689 (Simulation time: 0 hr 4 min 3 sec) 
Heartbeat CPU  0 instructions:  108000000 cycles:  118818465 heartbeat IPC: 0.24426 cumulative IPC: 0.15460 (Simulation time: 0 hr 4 min 6 sec) 
Heartbeat CPU  0 instructions:  109000000 cycles:  122800293 heartbeat IPC: 0.25114 cumulative IPC: 0.16149 (Simulation time: 0 hr 4 min 10 sec) 
Heartbeat CPU  0 instructions:  110000001 cycles:  125518273 heartbeat IPC: 0.36792 cumulative IPC: 0.17109 (Simulation time: 0 hr 4 min 13 sec) 
Heartbeat CPU  0 instructions:  111000003 cycles:  128620653 heartbeat IPC: 0.32233 cumulative IPC: 0.17872 (Simulation time: 0 hr 4 min 17 sec) 
Heartbeat CPU  0 instructions:  112000000 cycles:  131146835 heartbeat IPC: 0.39585 cumulative IPC: 0.18728 (Simulation time: 0 hr 4 min 20 sec) 
Heartbeat CPU  0 instructions:  113000002 cycles:  134529665 heartbeat IPC: 0.29561 cumulative IPC: 0.19271 (Simulation time: 0 hr 4 min 25 sec) 
Heartbeat CPU  0 instructions:  114000000 cycles:  138337923 heartbeat IPC: 0.26259 cumulative IPC: 0.19644 (Simulation time: 0 hr 4 min 29 sec) 
Heartbeat CPU  0 instructions:  115000000 cycles:  143520613 heartbeat IPC: 0.19295 cumulative IPC: 0.19621 (Simulation time: 0 hr 4 min 35 sec) 
Heartbeat CPU  0 instructions:  116000000 cycles:  148124630 heartbeat IPC: 0.21720 cumulative IPC: 0.19740 (Simulation time: 0 hr 4 min 39 sec) 
Heartbeat CPU  0 instructions:  117000000 cycles:  152934489 heartbeat IPC: 0.20791 cumulative IPC: 0.19799 (Simulation time: 0 hr 4 min 44 sec) 
Heartbeat CPU  0 instructions:  118000000 cycles:  156539921 heartbeat IPC: 0.27736 cumulative IPC: 0.20119 (Simulation time: 0 hr 4 min 48 sec) 
Heartbeat CPU  0 instructions:  119000000 cycles:  163372680 heartbeat IPC: 0.14635 cumulative IPC: 0.19730 (Simulation time: 0 hr 4 min 56 sec) 
Heartbeat CPU  0 instructions:  120000000 cycles:  166724317 heartbeat IPC: 0.29836 cumulative IPC: 0.20069 (Simulation time: 0 hr 5 min 0 sec) 
Heartbeat CPU  0 instructions:  121000001 cycles:  177144822 heartbeat IPC: 0.09596 cumulative IPC: 0.19078 (Simulation time: 0 hr 5 min 9 sec) 
Heartbeat CPU  0 instructions:  122000001 cycles:  184260987 heartbeat IPC: 0.14053 cumulative IPC: 0.18773 (Simulation time: 0 hr 5 min 14 sec) 
Heartbeat CPU  0 instructions:  123000000 cycles:  186072009 heartbeat IPC: 0.55217 cumulative IPC: 0.19327 (Simulation time: 0 hr 5 min 16 sec) 
Heartbeat CPU  0 instructions:  124000000 cycles:  187573712 heartbeat IPC: 0.66591 cumulative IPC: 0.19916 (Simulation time: 0 hr 5 min 18 sec) 
Heartbeat CPU  0 instructions:  125000000 cycles:  196524375 heartbeat IPC: 0.11172 cumulative IPC: 0.19312 (Simulation time: 0 hr 5 min 24 sec) 
Heartbeat CPU  0 instructions:  126000002 cycles:  201989856 heartbeat IPC: 0.18297 cumulative IPC: 0.19271 (Simulation time: 0 hr 5 min 29 sec) 
Heartbeat CPU  0 instructions:  127000002 cycles:  208863582 heartbeat IPC: 0.14548 cumulative IPC: 0.19042 (Simulation time: 0 hr 5 min 36 sec) 
Heartbeat CPU  0 instructions:  128000000 cycles:  213230800 heartbeat IPC: 0.22898 cumulative IPC: 0.19157 (Simulation time: 0 hr 5 min 40 sec) 
Heartbeat CPU  0 instructions:  129000000 cycles:  217987258 heartbeat IPC: 0.21024 cumulative IPC: 0.19216 (Simulation time: 0 hr 5 min 45 sec) 
Heartbeat CPU  0 instructions:  130000001 cycles:  230772919 heartbeat IPC: 0.07821 cumulative IPC: 0.18326 (Simulation time: 0 hr 5 min 55 sec) 
Heartbeat CPU  0 instructions:  131000000 cycles:  232897033 heartbeat IPC: 0.47078 cumulative IPC: 0.18694 (Simulation time: 0 hr 5 min 57 sec) 
Heartbeat CPU  0 instructions:  132000000 cycles:  234609665 heartbeat IPC: 0.58390 cumulative IPC: 0.19100 (Simulation time: 0 hr 5 min 59 sec) 
Heartbeat CPU  0 instructions:  133000000 cycles:  238700026 heartbeat IPC: 0.24448 cumulative IPC: 0.19227 (Simulation time: 0 hr 6 min 2 sec) 
Heartbeat CPU  0 instructions:  134000000 cycles:  247611522 heartbeat IPC: 0.11221 cumulative IPC: 0.18832 (Simulation time: 0 hr 6 min 9 sec) 
Heartbeat CPU  0 instructions:  135000002 cycles:  252323727 heartbeat IPC: 0.21222 cumulative IPC: 0.18893 (Simulation time: 0 hr 6 min 14 sec) 
Heartbeat CPU  0 instructions:  136000000 cycles:  258230914 heartbeat IPC: 0.16928 cumulative IPC: 0.18832 (Simulation time: 0 hr 6 min 20 sec) 
Heartbeat CPU  0 instructions:  137000000 cycles:  262566734 heartbeat IPC: 0.23064 cumulative IPC: 0.18926 (Simulation time: 0 hr 6 min 24 sec) 
Heartbeat CPU  0 instructions:  138000002 cycles:  269491491 heartbeat IPC: 0.14441 cumulative IPC: 0.18773 (Simulation time: 0 hr 6 min 31 sec) 
Heartbeat CPU  0 instructions:  139000000 cycles:  280093265 heartbeat IPC: 0.09432 cumulative IPC: 0.18308 (Simulation time: 0 hr 6 min 39 sec) 
Heartbeat CPU  0 instructions:  140000000 cycles:  281922189 heartbeat IPC: 0.54677 cumulative IPC: 0.18617 (Simulation time: 0 hr 6 min 41 sec) 
Heartbeat CPU  0 instructions:  141000000 cycles:  283542494 heartbeat IPC: 0.61717 cumulative IPC: 0.18940 (Simulation time: 0 hr 6 min 43 sec) 
Heartbeat CPU  0 instructions:  142000000 cycles:  289758988 heartbeat IPC: 0.16086 cumulative IPC: 0.18860 (Simulation time: 0 hr 6 min 47 sec) 
Heartbeat CPU  0 instructions:  143000000 cycles:  296577265 heartbeat IPC: 0.14666 cumulative IPC: 0.18736 (Simulation time: 0 hr 6 min 53 sec) 
Heartbeat CPU  0 instructions:  144000000 cycles:  301479060 heartbeat IPC: 0.20401 cumulative IPC: 0.18771 (Simulation time: 0 hr 6 min 57 sec) 
Heartbeat CPU  0 instructions:  145000002 cycles:  307864279 heartbeat IPC: 0.15661 cumulative IPC: 0.18688 (Simulation time: 0 hr 7 min 3 sec) 
Heartbeat CPU  0 instructions:  146000003 cycles:  311466735 heartbeat IPC: 0.27759 cumulative IPC: 0.18822 (Simulation time: 0 hr 7 min 8 sec) 
Heartbeat CPU  0 instructions:  147000002 cycles:  321157521 heartbeat IPC: 0.10319 cumulative IPC: 0.18498 (Simulation time: 0 hr 7 min 16 sec) 
Heartbeat CPU  0 instructions:  148000000 cycles:  329152790 heartbeat IPC: 0.12507 cumulative IPC: 0.18315 (Simulation time: 0 hr 7 min 22 sec) 
Heartbeat CPU  0 instructions:  149000000 cycles:  330983070 heartbeat IPC: 0.54636 cumulative IPC: 0.18567 (Simulation time: 0 hr 7 min 24 sec) 
Heartbeat CPU  0 instructions:  150000002 cycles:  332527642 heartbeat IPC: 0.64743 cumulative IPC: 0.18835 (Simulation time: 0 hr 7 min 26 sec) 
Heartbeat CPU  0 instructions:  151000000 cycles:  340539005 heartbeat IPC: 0.12482 cumulative IPC: 0.18649 (Simulation time: 0 hr 7 min 31 sec) 
Heartbeat CPU  0 instructions:  152000000 cycles:  346172642 heartbeat IPC: 0.17751 cumulative IPC: 0.18631 (Simulation time: 0 hr 7 min 36 sec) 
Heartbeat CPU  0 instructions:  153000000 cycles:  350553810 heartbeat IPC: 0.22825 cumulative IPC: 0.18696 (Simulation time: 0 hr 7 min 41 sec) 
Heartbeat CPU  0 instructions:  154000002 cycles:  357752194 heartbeat IPC: 0.13892 cumulative IPC: 0.18577 (Simulation time: 0 hr 7 min 47 sec) 
Heartbeat CPU  0 instructions:  155000002 cycles:  360392950 heartbeat IPC: 0.37868 cumulative IPC: 0.18751 (Simulation time: 0 hr 7 min 50 sec) 
Heartbeat CPU  0 instructions:  156000000 cycles:  372287759 heartbeat IPC: 0.08407 cumulative IPC: 0.18348 (Simulation time: 0 hr 8 min 0 sec) 
Heartbeat CPU  0 instructions:  157000000 cycles:  378294010 heartbeat IPC: 0.16649 cumulative IPC: 0.18315 (Simulation time: 0 hr 8 min 5 sec) 
Heartbeat CPU  0 instructions:  158000003 cycles:  380097838 heartbeat IPC: 0.55438 cumulative IPC: 0.18529 (Simulation time: 0 hr 8 min 7 sec) 
Heartbeat CPU  0 instructions:  159000000 cycles:  381734610 heartbeat IPC: 0.61096 cumulative IPC: 0.18750 (Simulation time: 0 hr 8 min 9 sec) 
Heartbeat CPU  0 instructions:  160000000 cycles:  391890911 heartbeat IPC: 0.09846 cumulative IPC: 0.18472 (Simulation time: 0 hr 8 min 15 sec) 
Heartbeat CPU  0 instructions:  161000003 cycles:  396540669 heartbeat IPC: 0.21507 cumulative IPC: 0.18515 (Simulation time: 0 hr 8 min 20 sec) 
Heartbeat CPU  0 instructions:  162000001 cycles:  402896637 heartbeat IPC: 0.15733 cumulative IPC: 0.18462 (Simulation time: 0 hr 8 min 26 sec) 
Heartbeat CPU  0 instructions:  163000000 cycles:  407452744 heartbeat IPC: 0.21949 cumulative IPC: 0.18509 (Simulation time: 0 hr 8 min 31 sec) 
Heartbeat CPU  0 instructions:  164000000 cycles:  412236068 heartbeat IPC: 0.20906 cumulative IPC: 0.18542 (Simulation time: 0 hr 8 min 36 sec) 
Heartbeat CPU  0 instructions:  165000001 cycles:  425048455 heartbeat IPC: 0.07805 cumulative IPC: 0.18158 (Simulation time: 0 hr 8 min 46 sec) 
Heartbeat CPU  0 instructions:  166000000 cycles:  427314138 heartbeat IPC: 0.44137 cumulative IPC: 0.18321 (Simulation time: 0 hr 8 min 48 sec) 
Heartbeat CPU  0 instructions:  167000001 cycles:  429030785 heartbeat IPC: 0.58253 cumulative IPC: 0.18510 (Simulation time: 0 hr 8 min 50 sec) 
Heartbeat CPU  0 instructions:  168000000 cycles:  433009878 heartbeat IPC: 0.25131 cumulative IPC: 0.18582 (Simulation time: 0 hr 8 min 53 sec) 
Heartbeat CPU  0 instructions:  169000001 cycles:  441958384 heartbeat IPC: 0.11175 cumulative IPC: 0.18406 (Simulation time: 0 hr 8 min 59 sec) 
Heartbeat CPU  0 instructions:  170000002 cycles:  446685645 heartbeat IPC: 0.21154 cumulative IPC: 0.18440 (Simulation time: 0 hr 9 min 4 sec) 
Heartbeat CPU  0 instructions:  171000000 cycles:  452567613 heartbeat IPC: 0.17001 cumulative IPC: 0.18418 (Simulation time: 0 hr 9 min 10 sec) 
Heartbeat CPU  0 instructions:  172000000 cycles:  456854297 heartbeat IPC: 0.23328 cumulative IPC: 0.18472 (Simulation time: 0 hr 9 min 14 sec) 
Heartbeat CPU  0 instructions:  173000000 cycles:  463691716 heartbeat IPC: 0.14625 cumulative IPC: 0.18405 (Simulation time: 0 hr 9 min 21 sec) 
Heartbeat CPU  0 instructions:  174000000 cycles:  474438941 heartbeat IPC: 0.09305 cumulative IPC: 0.18165 (Simulation time: 0 hr 9 min 29 sec) 
Heartbeat CPU  0 instructions:  175000000 cycles:  476273376 heartbeat IPC: 0.54513 cumulative IPC: 0.18328 (Simulation time: 0 hr 9 min 31 sec) 
Heartbeat CPU  0 instructions:  176000000 cycles:  477899421 heartbeat IPC: 0.61499 cumulative IPC: 0.18499 (Simulation time: 0 hr 9 min 33 sec) 
Heartbeat CPU  0 instructions:  177000002 cycles:  483934645 heartbeat IPC: 0.16569 cumulative IPC: 0.18471 (Simulation time: 0 hr 9 min 37 sec) 
Heartbeat CPU  0 instructions:  178000001 cycles:  490911709 heartbeat IPC: 0.14333 cumulative IPC: 0.18403 (Simulation time: 0 hr 9 min 43 sec) 
Heartbeat CPU  0 instructions:  179000000 cycles:  495866631 heartbeat IPC: 0.20182 cumulative IPC: 0.18424 (Simulation time: 0 hr 9 min 47 sec) 
Heartbeat CPU  0 instructions:  180000000 cycles:  502681219 heartbeat IPC: 0.14674 cumulative IPC: 0.18365 (Simulation time: 0 hr 9 min 54 sec) 
Heartbeat CPU  0 instructions:  181000003 cycles:  505584671 heartbeat IPC: 0.34442 cumulative IPC: 0.18471 (Simulation time: 0 hr 9 min 58 sec) 
Heartbeat CPU  0 instructions:  182000000 cycles:  516867699 heartbeat IPC: 0.08863 cumulative IPC: 0.18230 (Simulation time: 0 hr 10 min 7 sec) 
Heartbeat CPU  0 instructions:  183000000 cycles:  523347573 heartbeat IPC: 0.15432 cumulative IPC: 0.18191 (Simulation time: 0 hr 10 min 12 sec) 
Heartbeat CPU  0 instructions:  184000000 cycles:  525152989 heartbeat IPC: 0.55389 cumulative IPC: 0.18337 (Simulation time: 0 hr 10 min 14 sec) 
Heartbeat CPU  0 instructions:  185000002 cycles:  526678282 heartbeat IPC: 0.65561 cumulative IPC: 0.18494 (Simulation time: 0 hr 10 min 16 sec) 
Heartbeat CPU  0 instructions:  186000001 cycles:  536467426 heartbeat IPC: 0.10215 cumulative IPC: 0.18321 (Simulation time: 0 hr 10 min 22 sec) 
Heartbeat CPU  0 instructions:  187000003 cycles:  541442182 heartbeat IPC: 0.20102 cumulative IPC: 0.18340 (Simulation time: 0 hr 10 min 27 sec) 
Heartbeat CPU  0 instructions:  188000000 cycles:  545924958 heartbeat IPC: 0.22308 cumulative IPC: 0.18377 (Simulation time: 0 hr 10 min 31 sec) 
Heartbeat CPU  0 instructions:  189000001 cycles:  552204380 heartbeat IPC: 0.15925 cumulative IPC: 0.18345 (Simulation time: 0 hr 10 min 37 sec) 
Heartbeat CPU  0 instructions:  190000001 cycles:  555641165 heartbeat IPC: 0.29097 cumulative IPC: 0.18421 (Simulation time: 0 hr 10 min 42 sec) 
Heartbeat CPU  0 instructions:  191000002 cycles:  568437366 heartbeat IPC: 0.07815 cumulative IPC: 0.18150 (Simulation time: 0 hr 10 min 51 sec) 
Heartbeat CPU  0 instructions:  192000000 cycles:  572401730 heartbeat IPC: 0.25225 cumulative IPC: 0.18206 (Simulation time: 0 hr 10 min 55 sec) 
Heartbeat CPU  0 instructions:  193000003 cycles:  574160632 heartbeat IPC: 0.56854 cumulative IPC: 0.18340 (Simulation time: 0 hr 10 min 57 sec) 
Heartbeat CPU  0 instructions:  194000001 cycles:  576756088 heartbeat IPC: 0.38529 cumulative IPC: 0.18443 (Simulation time: 0 hr 11 min 0 sec) 
Heartbeat CPU  0 instructions:  195000001 cycles:  586972497 heartbeat IPC: 0.09788 cumulative IPC: 0.18273 (Simulation time: 0 hr 11 min 6 sec) 
Heartbeat CPU  0 instructions:  196000000 cycles:  591360746 heartbeat IPC: 0.22788 cumulative IPC: 0.18310 (Simulation time: 0 hr 11 min 10 sec) 
Heartbeat CPU  0 instructions:  197000000 cycles:  597404639 heartbeat IPC: 0.16546 cumulative IPC: 0.18290 (Simulation time: 0 hr 11 min 16 sec) 
Heartbeat CPU  0 instructions:  198000000 cycles:  601598457 heartbeat IPC: 0.23845 cumulative IPC: 0.18334 (Simulation time: 0 hr 11 min 20 sec) 
Heartbeat CPU  0 instructions:  199000000 cycles:  607024340 heartbeat IPC: 0.18430 cumulative IPC: 0.18335 (Simulation time: 0 hr 11 min 26 sec) 
Heartbeat CPU  0 instructions:  200000000 cycles:  619605561 heartbeat IPC: 0.07948 cumulative IPC: 0.18098 (Simulation time: 0 hr 11 min 35 sec) 
Heartbeat CPU  0 instructions:  201000000 cycles:  621447164 heartbeat IPC: 0.54301 cumulative IPC: 0.18219 (Simulation time: 0 hr 11 min 37 sec) 
Heartbeat CPU  0 instructions:  202000002 cycles:  623139258 heartbeat IPC: 0.59098 cumulative IPC: 0.18343 (Simulation time: 0 hr 11 min 39 sec) 
Heartbeat CPU  0 instructions:  203000002 cycles:  627694817 heartbeat IPC: 0.21951 cumulative IPC: 0.18372 (Simulation time: 0 hr 11 min 43 sec) 
Heartbeat CPU  0 instructions:  204000000 cycles:  636151676 heartbeat IPC: 0.11825 cumulative IPC: 0.18275 (Simulation time: 0 hr 11 min 49 sec) 
Heartbeat CPU  0 instructions:  205000000 cycles:  640887538 heartbeat IPC: 0.21115 cumulative IPC: 0.18299 (Simulation time: 0 hr 11 min 53 sec) 
Heartbeat CPU  0 instructions:  206000000 cycles:  642492938 heartbeat IPC: 0.62290 cumulative IPC: 0.18421 (Simulation time: 0 hr 11 min 57 sec) 
Heartbeat CPU  0 instructions:  207000002 cycles:  655008848 heartbeat IPC: 0.07990 cumulative IPC: 0.18199 (Simulation time: 0 hr 12 min 4 sec) 
Heartbeat CPU  0 instructions:  208000000 cycles:  661389086 heartbeat IPC: 0.15673 cumulative IPC: 0.18172 (Simulation time: 0 hr 12 min 11 sec) 
Heartbeat CPU  0 instructions:  209000001 cycles:  669707733 heartbeat IPC: 0.12021 cumulative IPC: 0.18087 (Simulation time: 0 hr 12 min 18 sec) 
Heartbeat CPU  0 instructions:  210000000 cycles:  675755331 heartbeat IPC: 0.16535 cumulative IPC: 0.18072 (Simulation time: 0 hr 12 min 23 sec) 
Heartbeat CPU  0 instructions:  211000001 cycles:  680954275 heartbeat IPC: 0.19235 cumulative IPC: 0.18082 (Simulation time: 0 hr 12 min 28 sec) 
Heartbeat CPU  0 instructions:  212000000 cycles:  685612129 heartbeat IPC: 0.21469 cumulative IPC: 0.18107 (Simulation time: 0 hr 12 min 33 sec) 
Heartbeat CPU  0 instructions:  213000002 cycles:  690662331 heartbeat IPC: 0.19801 cumulative IPC: 0.18121 (Simulation time: 0 hr 12 min 37 sec) 
Heartbeat CPU  0 instructions:  214000001 cycles:  694919170 heartbeat IPC: 0.23492 cumulative IPC: 0.18157 (Simulation time: 0 hr 12 min 40 sec) 
Heartbeat CPU  0 instructions:  215000002 cycles:  698581837 heartbeat IPC: 0.27303 cumulative IPC: 0.18210 (Simulation time: 0 hr 12 min 44 sec) 
Heartbeat CPU  0 instructions:  216000000 cycles:  701228203 heartbeat IPC: 0.37788 cumulative IPC: 0.18292 (Simulation time: 0 hr 12 min 47 sec) 
Heartbeat CPU  0 instructions:  217000000 cycles:  704293810 heartbeat IPC: 0.32620 cumulative IPC: 0.18361 (Simulation time: 0 hr 12 min 50 sec) 
Heartbeat CPU  0 instructions:  218000002 cycles:  706749745 heartbeat IPC: 0.40718 cumulative IPC: 0.18447 (Simulation time: 0 hr 12 min 54 sec) 
Heartbeat CPU  0 instructions:  219000002 cycles:  710341088 heartbeat IPC: 0.27845 cumulative IPC: 0.18499 (Simulation time: 0 hr 12 min 59 sec) 
Heartbeat CPU  0 instructions:  220000000 cycles:  714462000 heartbeat IPC: 0.24266 cumulative IPC: 0.18536 (Simulation time: 0 hr 13 min 3 sec) 
Heartbeat CPU  0 instructions:  221000003 cycles:  719696571 heartbeat IPC: 0.19104 cumulative IPC: 0.18540 (Simulation time: 0 hr 13 min 8 sec) 
Heartbeat CPU  0 instructions:  222000003 cycles:  724821787 heartbeat IPC: 0.19511 cumulative IPC: 0.18548 (Simulation time: 0 hr 13 min 13 sec) 
Heartbeat CPU  0 instructions:  223000001 cycles:  728721437 heartbeat IPC: 0.25643 cumulative IPC: 0.18590 (Simulation time: 0 hr 13 min 17 sec) 
Heartbeat CPU  0 instructions:  224000000 cycles:  733088230 heartbeat IPC: 0.22900 cumulative IPC: 0.18618 (Simulation time: 0 hr 13 min 22 sec) 
Heartbeat CPU  0 instructions:  225000000 cycles:  739597391 heartbeat IPC: 0.15363 cumulative IPC: 0.18587 (Simulation time: 0 hr 13 min 28 sec) 
Heartbeat CPU  0 instructions:  226000000 cycles:  742287289 heartbeat IPC: 0.37176 cumulative IPC: 0.18661 (Simulation time: 0 hr 13 min 32 sec) 
Heartbeat CPU  0 instructions:  227000000 cycles:  755014900 heartbeat IPC: 0.07857 cumulative IPC: 0.18461 (Simulation time: 0 hr 13 min 41 sec) 
Heartbeat CPU  0 instructions:  228000000 cycles:  759819250 heartbeat IPC: 0.20814 cumulative IPC: 0.18477 (Simulation time: 0 hr 13 min 45 sec) 
Heartbeat CPU  0 instructions:  229000001 cycles:  761598999 heartbeat IPC: 0.56188 cumulative IPC: 0.18574 (Simulation time: 0 hr 13 min 47 sec) 
Heartbeat CPU  0 instructions:  230000000 cycles:  763628038 heartbeat IPC: 0.49284 cumulative IPC: 0.18663 (Simulation time: 0 hr 13 min 50 sec) 
Heartbeat CPU  0 instructions:  231000000 cycles:  774273621 heartbeat IPC: 0.09394 cumulative IPC: 0.18524 (Simulation time: 0 hr 13 min 56 sec) 
Heartbeat CPU  0 instructions:  232000000 cycles:  778559316 heartbeat IPC: 0.23333 cumulative IPC: 0.18553 (Simulation time: 0 hr 14 min 1 sec) 
Heartbeat CPU  0 instructions:  233000000 cycles:  784980015 heartbeat IPC: 0.15575 cumulative IPC: 0.18526 (Simulation time: 0 hr 14 min 7 sec) 
Heartbeat CPU  0 instructions:  234000002 cycles:  789207747 heartbeat IPC: 0.23653 cumulative IPC: 0.18556 (Simulation time: 0 hr 14 min 11 sec) 
Heartbeat CPU  0 instructions:  235000000 cycles:  796118357 heartbeat IPC: 0.14470 cumulative IPC: 0.18517 (Simulation time: 0 hr 14 min 18 sec) 
Heartbeat CPU  0 instructions:  236000000 cycles:  806715205 heartbeat IPC: 0.09437 cumulative IPC: 0.18387 (Simulation time: 0 hr 14 min 26 sec) 
Heartbeat CPU  0 instructions:  237000002 cycles:  808540928 heartbeat IPC: 0.54773 cumulative IPC: 0.18477 (Simulation time: 0 hr 14 min 28 sec) 
Heartbeat CPU  0 instructions:  238000002 cycles:  810161531 heartbeat IPC: 0.61705 cumulative IPC: 0.18571 (Simulation time: 0 hr 14 min 30 sec) 
Heartbeat CPU  0 instructions:  239000001 cycles:  816383925 heartbeat IPC: 0.16071 cumulative IPC: 0.18550 (Simulation time: 0 hr 14 min 34 sec) 
Heartbeat CPU  0 instructions:  240000000 cycles:  823169720 heartbeat IPC: 0.14737 cumulative IPC: 0.18516 (Simulation time: 0 hr 14 min 39 sec) 
Heartbeat CPU  0 instructions:  241000001 cycles:  828077940 heartbeat IPC: 0.20374 cumulative IPC: 0.18528 (Simulation time: 0 hr 14 min 44 sec) 
Heartbeat CPU  0 instructions:  242000002 cycles:  834495338 heartbeat IPC: 0.15583 cumulative IPC: 0.18503 (Simulation time: 0 hr 14 min 50 sec) 
Heartbeat CPU  0 instructions:  243000002 cycles:  838065116 heartbeat IPC: 0.28013 cumulative IPC: 0.18547 (Simulation time: 0 hr 14 min 54 sec) 
Heartbeat CPU  0 instructions:  244000000 cycles:  847818450 heartbeat IPC: 0.10253 cumulative IPC: 0.18444 (Simulation time: 0 hr 15 min 2 sec) 
Heartbeat CPU  0 instructions:  245000001 cycles:  855700889 heartbeat IPC: 0.12686 cumulative IPC: 0.18386 (Simulation time: 0 hr 15 min 8 sec) 
Heartbeat CPU  0 instructions:  246000001 cycles:  857527405 heartbeat IPC: 0.54749 cumulative IPC: 0.18470 (Simulation time: 0 hr 15 min 10 sec) 
Heartbeat CPU  0 instructions:  247000001 cycles:  859071558 heartbeat IPC: 0.64760 cumulative IPC: 0.18561 (Simulation time: 0 hr 15 min 12 sec) 
Heartbeat CPU  0 instructions:  248000000 cycles:  867174642 heartbeat IPC: 0.12341 cumulative IPC: 0.18498 (Simulation time: 0 hr 15 min 17 sec) 
Heartbeat CPU  0 instructions:  249000000 cycles:  872755345 heartbeat IPC: 0.17919 cumulative IPC: 0.18494 (Simulation time: 0 hr 15 min 22 sec) 
Heartbeat CPU  0 instructions:  250000000 cycles:  877125412 heartbeat IPC: 0.22883 cumulative IPC: 0.18517 (Simulation time: 0 hr 15 min 26 sec) 
Heartbeat CPU  0 instructions:  251000002 cycles:  884359029 heartbeat IPC: 0.13824 cumulative IPC: 0.18476 (Simulation time: 0 hr 15 min 33 sec) 
Heartbeat CPU  0 instructions:  252000000 cycles:  886958385 heartbeat IPC: 0.38471 cumulative IPC: 0.18539 (Simulation time: 0 hr 15 min 37 sec) 
Heartbeat CPU  0 instructions:  253000000 cycles:  898901771 heartbeat IPC: 0.08373 cumulative IPC: 0.18393 (Simulation time: 0 hr 15 min 46 sec) 
Heartbeat CPU  0 instructions:  254000000 cycles:  904771238 heartbeat IPC: 0.17037 cumulative IPC: 0.18384 (Simulation time: 0 hr 15 min 51 sec) 
Heartbeat CPU  0 instructions:  255000002 cycles:  906567802 heartbeat IPC: 0.55662 cumulative IPC: 0.18463 (Simulation time: 0 hr 15 min 53 sec) 
Heartbeat CPU  0 instructions:  256000000 cycles:  908209833 heartbeat IPC: 0.60900 cumulative IPC: 0.18546 (Simulation time: 0 hr 15 min 55 sec) 
Heartbeat CPU  0 instructions:  257000000 cycles:  918444508 heartbeat IPC: 0.09771 cumulative IPC: 0.18441 (Simulation time: 0 hr 16 min 1 sec) 
Heartbeat CPU  0 instructions:  258000002 cycles:  923082496 heartbeat IPC: 0.21561 cumulative IPC: 0.18458 (Simulation time: 0 hr 16 min 6 sec) 
Heartbeat CPU  0 instructions:  259000003 cycles:  928024847 heartbeat IPC: 0.20233 cumulative IPC: 0.18468 (Simulation time: 0 hr 16 min 11 sec) 
Heartbeat CPU  0 instructions:  260000000 cycles:  933683671 heartbeat IPC: 0.17671 cumulative IPC: 0.18463 (Simulation time: 0 hr 16 min 16 sec) 
Heartbeat CPU  0 instructions:  261000000 cycles:  937719706 heartbeat IPC: 0.24777 cumulative IPC: 0.18492 (Simulation time: 0 hr 16 min 21 sec) 
Heartbeat CPU  0 instructions:  262000000 cycles:  950514803 heartbeat IPC: 0.07815 cumulative IPC: 0.18337 (Simulation time: 0 hr 16 min 31 sec) 
Heartbeat CPU  0 instructions:  263000002 cycles:  953814945 heartbeat IPC: 0.30302 cumulative IPC: 0.18382 (Simulation time: 0 hr 16 min 34 sec) 
Heartbeat CPU  0 instructions:  264000000 cycles:  955558364 heartbeat IPC: 0.57358 cumulative IPC: 0.18458 (Simulation time: 0 hr 16 min 36 sec) 
Heartbeat CPU  0 instructions:  265000003 cycles:  958759833 heartbeat IPC: 0.31236 cumulative IPC: 0.18504 (Simulation time: 0 hr 16 min 39 sec) 
Heartbeat CPU  0 instructions:  266000002 cycles:  968445577 heartbeat IPC: 0.10324 cumulative IPC: 0.18416 (Simulation time: 0 hr 16 min 45 sec) 
Heartbeat CPU  0 instructions:  267000000 cycles:  973012350 heartbeat IPC: 0.21897 cumulative IPC: 0.18434 (Simulation time: 0 hr 16 min 49 sec) 
Heartbeat CPU  0 instructions:  268000000 cycles:  978959966 heartbeat IPC: 0.16813 cumulative IPC: 0.18423 (Simulation time: 0 hr 16 min 55 sec) 
Heartbeat CPU  0 instructions:  269000002 cycles:  983063549 heartbeat IPC: 0.24369 cumulative IPC: 0.18450 (Simulation time: 0 hr 16 min 59 sec) 
Heartbeat CPU  0 instructions:  270000002 cycles:  989162650 heartbeat IPC: 0.16396 cumulative IPC: 0.18436 (Simulation time: 0 hr 17 min 5 sec) 
Heartbeat CPU  0 instructions:  271000003 cycles: 1000914596 heartbeat IPC: 0.08509 cumulative IPC: 0.18311 (Simulation time: 0 hr 17 min 14 sec) 
Heartbeat CPU  0 instructions:  272000000 cycles: 1002755129 heartbeat IPC: 0.54332 cumulative IPC: 0.18382 (Simulation time: 0 hr 17 min 16 sec) 
Heartbeat CPU  0 instructions:  273000003 cycles: 1004411490 heartbeat IPC: 0.60373 cumulative IPC: 0.18456 (Simulation time: 0 hr 17 min 18 sec) 
Heartbeat CPU  0 instructions:  274000001 cycles: 1009600592 heartbeat IPC: 0.19271 cumulative IPC: 0.18461 (Simulation time: 0 hr 17 min 22 sec) 
Heartbeat CPU  0 instructions:  275000000 cycles: 1017445950 heartbeat IPC: 0.12746 cumulative IPC: 0.18414 (Simulation time: 0 hr 17 min 27 sec) 
Heartbeat CPU  0 instructions:  276000000 cycles: 1022217962 heartbeat IPC: 0.20956 cumulative IPC: 0.18426 (Simulation time: 0 hr 17 min 32 sec) 
Heartbeat CPU  0 instructions:  277000001 cycles: 1028337668 heartbeat IPC: 0.16341 cumulative IPC: 0.18413 (Simulation time: 0 hr 17 min 38 sec) 
Heartbeat CPU  0 instructions:  278000000 cycles: 1032347789 heartbeat IPC: 0.24937 cumulative IPC: 0.18440 (Simulation time: 0 hr 17 min 42 sec) 
Heartbeat CPU  0 instructions:  279000000 cycles: 1040758072 heartbeat IPC: 0.11890 cumulative IPC: 0.18384 (Simulation time: 0 hr 17 min 50 sec) 
Heartbeat CPU  0 instructions:  280000000 cycles: 1049949671 heartbeat IPC: 0.10880 cumulative IPC: 0.18314 (Simulation time: 0 hr 17 min 57 sec) 
Heartbeat CPU  0 instructions:  281000000 cycles: 1051785198 heartbeat IPC: 0.54480 cumulative IPC: 0.18381 (Simulation time: 0 hr 17 min 59 sec) 
Heartbeat CPU  0 instructions:  282000000 cycles: 1053372827 heartbeat IPC: 0.62987 cumulative IPC: 0.18453 (Simulation time: 0 hr 18 min 1 sec) 
Heartbeat CPU  0 instructions:  283000003 cycles: 1060443112 heartbeat IPC: 0.14144 cumulative IPC: 0.18422 (Simulation time: 0 hr 18 min 5 sec) 
Heartbeat CPU  0 instructions:  284000000 cycles: 1066316053 heartbeat IPC: 0.17027 cumulative IPC: 0.18414 (Simulation time: 0 hr 18 min 10 sec) 
Heartbeat CPU  0 instructions:  285000001 cycles: 1071304155 heartbeat IPC: 0.20048 cumulative IPC: 0.18422 (Simulation time: 0 hr 18 min 15 sec) 
Heartbeat CPU  0 instructions:  286000000 cycles: 1078018171 heartbeat IPC: 0.14894 cumulative IPC: 0.18399 (Simulation time: 0 hr 18 min 22 sec) 
Heartbeat CPU  0 instructions:  287000003 cycles: 1081255204 heartbeat IPC: 0.30893 cumulative IPC: 0.18438 (Simulation time: 0 hr 18 min 26 sec) 
Heartbeat CPU  0 instructions:  288000000 cycles: 1091863353 heartbeat IPC: 0.09427 cumulative IPC: 0.18345 (Simulation time: 0 hr 18 min 34 sec) 
Heartbeat CPU  0 instructions:  289000000 cycles: 1098960110 heartbeat IPC: 0.14091 cumulative IPC: 0.18316 (Simulation time: 0 hr 18 min 39 sec) 
Heartbeat CPU  0 instructions:  290000000 cycles: 1100772656 heartbeat IPC: 0.55171 cumulative IPC: 0.18381 (Simulation time: 0 hr 18 min 41 sec) 
Heartbeat CPU  0 instructions:  291000000 cycles: 1102268271 heartbeat IPC: 0.66862 cumulative IPC: 0.18451 (Simulation time: 0 hr 18 min 44 sec) 
Heartbeat CPU  0 instructions:  292000000 cycles: 1111314924 heartbeat IPC: 0.11054 cumulative IPC: 0.18386 (Simulation time: 0 hr 18 min 49 sec) 
Heartbeat CPU  0 instructions:  293000002 cycles: 1116725435 heartbeat IPC: 0.18483 cumulative IPC: 0.18387 (Simulation time: 0 hr 18 min 54 sec) 
Heartbeat CPU  0 instructions:  294000001 cycles: 1120895173 heartbeat IPC: 0.23982 cumulative IPC: 0.18409 (Simulation time: 0 hr 18 min 58 sec) 
Heartbeat CPU  0 instructions:  295000003 cycles: 1127696742 heartbeat IPC: 0.14703 cumulative IPC: 0.18385 (Simulation time: 0 hr 19 min 5 sec) 
Heartbeat CPU  0 instructions:  296000000 cycles: 1130309142 heartbeat IPC: 0.38279 cumulative IPC: 0.18434 (Simulation time: 0 hr 19 min 9 sec) 
Heartbeat CPU  0 instructions:  297000001 cycles: 1143197923 heartbeat IPC: 0.07759 cumulative IPC: 0.18306 (Simulation time: 0 hr 19 min 18 sec) 
Heartbeat CPU  0 instructions:  298000000 cycles: 1148007938 heartbeat IPC: 0.20790 cumulative IPC: 0.18317 (Simulation time: 0 hr 19 min 22 sec) 
Heartbeat CPU  0 instructions:  299000000 cycles: 1149793046 heartbeat IPC: 0.56019 cumulative IPC: 0.18380 (Simulation time: 0 hr 19 min 24 sec) 
Heartbeat CPU  0 instructions:  300000000 cycles: 1153984949 heartbeat IPC: 0.23856 cumulative IPC: 0.18401 (Simulation time: 0 hr 19 min 28 sec) 
Heartbeat CPU  0 instructions:  301000001 cycles: 1163418828 heartbeat IPC: 0.10600 cumulative IPC: 0.18334 (Simulation time: 0 hr 19 min 34 sec) 
Heartbeat CPU  0 instructions:  302000001 cycles: 1169816389 heartbeat IPC: 0.15631 cumulative IPC: 0.18318 (Simulation time: 0 hr 19 min 38 sec) 
Heartbeat CPU  0 instructions:  303000000 cycles: 1174758952 heartbeat IPC: 0.20232 cumulative IPC: 0.18326 (Simulation time: 0 hr 19 min 43 sec) 
Heartbeat CPU  0 instructions:  304000000 cycles: 1179063019 heartbeat IPC: 0.23234 cumulative IPC: 0.18345 (Simulation time: 0 hr 19 min 48 sec) 
Heartbeat CPU  0 instructions:  305000000 cycles: 1185683567 heartbeat IPC: 0.15104 cumulative IPC: 0.18326 (Simulation time: 0 hr 19 min 54 sec) 
Heartbeat CPU  0 instructions:  306000003 cycles: 1188648325 heartbeat IPC: 0.33730 cumulative IPC: 0.18367 (Simulation time: 0 hr 19 min 58 sec) 
Heartbeat CPU  0 instructions:  307000003 cycles: 1201406340 heartbeat IPC: 0.07838 cumulative IPC: 0.18249 (Simulation time: 0 hr 20 min 7 sec) 
Heartbeat CPU  0 instructions:  308000000 cycles: 1205822759 heartbeat IPC: 0.22643 cumulative IPC: 0.18266 (Simulation time: 0 hr 20 min 11 sec) 
Heartbeat CPU  0 instructions:  309000001 cycles: 1207600054 heartbeat IPC: 0.56265 cumulative IPC: 0.18325 (Simulation time: 0 hr 20 min 13 sec) 
Heartbeat CPU  0 instructions:  310000003 cycles: 1212089779 heartbeat IPC: 0.22273 cumulative IPC: 0.18340 (Simulation time: 0 hr 20 min 16 sec) 
Heartbeat CPU  0 instructions:  311000001 cycles: 1221202732 heartbeat IPC: 0.10973 cumulative IPC: 0.18282 (Simulation time: 0 hr 20 min 23 sec) 
Heartbeat CPU  0 instructions:  312000000 cycles: 1227933077 heartbeat IPC: 0.14858 cumulative IPC: 0.18262 (Simulation time: 0 hr 20 min 27 sec) 
Heartbeat CPU  0 instructions:  313000000 cycles: 1232766285 heartbeat IPC: 0.20690 cumulative IPC: 0.18272 (Simulation time: 0 hr 20 min 32 sec) 
Heartbeat CPU  0 instructions:  314000003 cycles: 1235858958 heartbeat IPC: 0.32335 cumulative IPC: 0.18310 (Simulation time: 0 hr 20 min 36 sec) 
Heartbeat CPU  0 instructions:  315000000 cycles: 1243495445 heartbeat IPC: 0.13095 cumulative IPC: 0.18276 (Simulation time: 0 hr 20 min 41 sec) 
Heartbeat CPU  0 instructions:  316000000 cycles: 1252667766 heartbeat IPC: 0.10902 cumulative IPC: 0.18219 (Simulation time: 0 hr 20 min 48 sec) 
Heartbeat CPU  0 instructions:  317000002 cycles: 1261104714 heartbeat IPC: 0.11853 cumulative IPC: 0.18174 (Simulation time: 0 hr 20 min 56 sec) 
Heartbeat CPU  0 instructions:  318000001 cycles: 1267242041 heartbeat IPC: 0.16294 cumulative IPC: 0.18164 (Simulation time: 0 hr 21 min 1 sec) 
Heartbeat CPU  0 instructions:  319000001 cycles: 1272676789 heartbeat IPC: 0.18400 cumulative IPC: 0.18165 (Simulation time: 0 hr 21 min 6 sec) 
Heartbeat CPU  0 instructions:  320000000 cycles: 1277529685 heartbeat IPC: 0.20606 cumulative IPC: 0.18175 (Simulation time: 0 hr 21 min 11 sec) 
Heartbeat CPU  0 instructions:  321000003 cycles: 1282974232 heartbeat IPC: 0.18367 cumulative IPC: 0.18176 (Simulation time: 0 hr 21 min 15 sec) 
Heartbeat CPU  0 instructions:  322000001 cycles: 1287002958 heartbeat IPC: 0.24822 cumulative IPC: 0.18198 (Simulation time: 0 hr 21 min 18 sec) 
Heartbeat CPU  0 instructions:  323000002 cycles: 1291164166 heartbeat IPC: 0.24032 cumulative IPC: 0.18218 (Simulation time: 0 hr 21 min 22 sec) 
Heartbeat CPU  0 instructions:  324000000 cycles: 1294087738 heartbeat IPC: 0.34205 cumulative IPC: 0.18256 (Simulation time: 0 hr 21 min 25 sec) 
Heartbeat CPU  0 instructions:  325000000 cycles: 1297135894 heartbeat IPC: 0.32807 cumulative IPC: 0.18292 (Simulation time: 0 hr 21 min 29 sec) 
Heartbeat CPU  0 instructions:  326000002 cycles: 1299736429 heartbeat IPC: 0.38454 cumulative IPC: 0.18334 (Simulation time: 0 hr 21 min 32 sec) 
Heartbeat CPU  0 instructions:  327000001 cycles: 1303236032 heartbeat IPC: 0.28575 cumulative IPC: 0.18363 (Simulation time: 0 hr 21 min 37 sec) 
Heartbeat CPU  0 instructions:  328000000 cycles: 1306125300 heartbeat IPC: 0.34611 cumulative IPC: 0.18401 (Simulation time: 0 hr 21 min 41 sec) 
Heartbeat CPU  0 instructions:  329000001 cycles: 1310503694 heartbeat IPC: 0.22839 cumulative IPC: 0.18417 (Simulation time: 0 hr 21 min 45 sec) 
Heartbeat CPU  0 instructions:  330000000 cycles: 1316686084 heartbeat IPC: 0.16175 cumulative IPC: 0.18406 (Simulation time: 0 hr 21 min 50 sec) 
Heartbeat CPU  0 instructions:  331000002 cycles: 1321040238 heartbeat IPC: 0.22967 cumulative IPC: 0.18421 (Simulation time: 0 hr 21 min 55 sec) 
Heartbeat CPU  0 instructions:  332000000 cycles: 1324645363 heartbeat IPC: 0.27738 cumulative IPC: 0.18448 (Simulation time: 0 hr 21 min 59 sec) 
Heartbeat CPU  0 instructions:  333000003 cycles: 1331530322 heartbeat IPC: 0.14524 cumulative IPC: 0.18427 (Simulation time: 0 hr 22 min 6 sec) 
Heartbeat CPU  0 instructions:  334000000 cycles: 1335664931 heartbeat IPC: 0.24186 cumulative IPC: 0.18446 (Simulation time: 0 hr 22 min 10 sec) 
Heartbeat CPU  0 instructions:  335000001 cycles: 1343916800 heartbeat IPC: 0.12118 cumulative IPC: 0.18405 (Simulation time: 0 hr 22 min 17 sec) 
Heartbeat CPU  0 instructions:  336000000 cycles: 1353112505 heartbeat IPC: 0.10875 cumulative IPC: 0.18351 (Simulation time: 0 hr 22 min 24 sec) 
Heartbeat CPU  0 instructions:  337000000 cycles: 1354943269 heartbeat IPC: 0.54622 cumulative IPC: 0.18402 (Simulation time: 0 hr 22 min 26 sec) 
Heartbeat CPU  0 instructions:  338000000 cycles: 1356528009 heartbeat IPC: 0.63102 cumulative IPC: 0.18457 (Simulation time: 0 hr 22 min 28 sec) 
Heartbeat CPU  0 instructions:  339000001 cycles: 1366171067 heartbeat IPC: 0.10370 cumulative IPC: 0.18397 (Simulation time: 0 hr 22 min 35 sec) 
Heartbeat CPU  0 instructions:  340000000 cycles: 1371591898 heartbeat IPC: 0.18447 cumulative IPC: 0.18398 (Simulation time: 0 hr 22 min 39 sec) 
Heartbeat CPU  0 instructions:  341000003 cycles: 1378606752 heartbeat IPC: 0.14256 cumulative IPC: 0.18375 (Simulation time: 0 hr 22 min 44 sec) 
Heartbeat CPU  0 instructions:  342000001 cycles: 1383408690 heartbeat IPC: 0.20825 cumulative IPC: 0.18384 (Simulation time: 0 hr 22 min 49 sec) 
Heartbeat CPU  0 instructions:  343000003 cycles: 1390082709 heartbeat IPC: 0.14984 cumulative IPC: 0.18367 (Simulation time: 0 hr 22 min 55 sec) 
Heartbeat CPU  0 instructions:  344000000 cycles: 1393010161 heartbeat IPC: 0.34159 cumulative IPC: 0.18402 (Simulation time: 0 hr 22 min 59 sec) 
Heartbeat CPU  0 instructions:  345000000 cycles: 1404107607 heartbeat IPC: 0.09011 cumulative IPC: 0.18324 (Simulation time: 0 hr 23 min 8 sec) 
Heartbeat CPU  0 instructions:  346000000 cycles: 1410743598 heartbeat IPC: 0.15069 cumulative IPC: 0.18308 (Simulation time: 0 hr 23 min 13 sec) 
Heartbeat CPU  0 instructions:  347000000 cycles: 1412552793 heartbeat IPC: 0.55273 cumulative IPC: 0.18358 (Simulation time: 0 hr 23 min 15 sec) 
Heartbeat CPU  0 instructions:  348000000 cycles: 1414305712 heartbeat IPC: 0.57048 cumulative IPC: 0.18408 (Simulation time: 0 hr 23 min 17 sec) 
Heartbeat CPU  0 instructions:  349000000 cycles: 1425907087 heartbeat IPC: 0.08620 cumulative IPC: 0.18324 (Simulation time: 0 hr 23 min 24 sec) 
Heartbeat CPU  0 instructions:  350000000 cycles: 1431067333 heartbeat IPC: 0.19379 cumulative IPC: 0.18328 (Simulation time: 0 hr 23 min 28 sec) 
Heartbeat CPU  0 instructions:  351000002 cycles: 1436468547 heartbeat IPC: 0.18514 cumulative IPC: 0.18329 (Simulation time: 0 hr 23 min 33 sec) 
Heartbeat CPU  0 instructions:  352000000 cycles: 1441053822 heartbeat IPC: 0.21809 cumulative IPC: 0.18341 (Simulation time: 0 hr 23 min 37 sec) 
Heartbeat CPU  0 instructions:  353000003 cycles: 1448004879 heartbeat IPC: 0.14386 cumulative IPC: 0.18321 (Simulation time: 0 hr 23 min 44 sec) 
Heartbeat CPU  0 instructions:  354000001 cycles: 1450890749 heartbeat IPC: 0.34652 cumulative IPC: 0.18355 (Simulation time: 0 hr 23 min 47 sec) 
Heartbeat CPU  0 instructions:  355000000 cycles: 1462358657 heartbeat IPC: 0.08720 cumulative IPC: 0.18276 (Simulation time: 0 hr 23 min 56 sec) 
Heartbeat CPU  0 instructions:  356000000 cycles: 1468704495 heartbeat IPC: 0.15758 cumulative IPC: 0.18264 (Simulation time: 0 hr 24 min 1 sec) 
Heartbeat CPU  0 instructions:  357000002 cycles: 1470508529 heartbeat IPC: 0.55431 cumulative IPC: 0.18312 (Simulation time: 0 hr 24 min 3 sec) 
Heartbeat CPU  0 instructions:  358000000 cycles: 1472660778 heartbeat IPC: 0.46463 cumulative IPC: 0.18355 (Simulation time: 0 hr 24 min 6 sec) 
Heartbeat CPU  0 instructions:  359000001 cycles: 1483890433 heartbeat IPC: 0.08905 cumulative IPC: 0.18280 (Simulation time: 0 hr 24 min 13 sec) 
Heartbeat CPU  0 instructions:  360000000 cycles: 1489245419 heartbeat IPC: 0.18674 cumulative IPC: 0.18282 (Simulation time: 0 hr 24 min 17 sec) 
Heartbeat CPU  0 instructions:  361000001 cycles: 1494544124 heartbeat IPC: 0.18873 cumulative IPC: 0.18284 (Simulation time: 0 hr 24 min 22 sec) 
Heartbeat CPU  0 instructions:  362000000 cycles: 1498945505 heartbeat IPC: 0.22720 cumulative IPC: 0.18298 (Simulation time: 0 hr 24 min 26 sec) 
Heartbeat CPU  0 instructions:  363000000 cycles: 1506138578 heartbeat IPC: 0.13902 cumulative IPC: 0.18276 (Simulation time: 0 hr 24 min 32 sec) 
Heartbeat CPU  0 instructions:  364000000 cycles: 1508797438 heartbeat IPC: 0.37610 cumulative IPC: 0.18311 (Simulation time: 0 hr 24 min 36 sec) 
Heartbeat CPU  0 instructions:  365000003 cycles: 1520606044 heartbeat IPC: 0.08468 cumulative IPC: 0.18231 (Simulation time: 0 hr 24 min 45 sec) 
Heartbeat CPU  0 instructions:  366000000 cycles: 1526600390 heartbeat IPC: 0.16682 cumulative IPC: 0.18225 (Simulation time: 0 hr 24 min 50 sec) 
Heartbeat CPU  0 instructions:  367000001 cycles: 1528403447 heartbeat IPC: 0.55461 cumulative IPC: 0.18271 (Simulation time: 0 hr 24 min 52 sec) 
Heartbeat CPU  0 instructions:  368000000 cycles: 1531025140 heartbeat IPC: 0.38143 cumulative IPC: 0.18307 (Simulation time: 0 hr 24 min 54 sec) 
Heartbeat CPU  0 instructions:  369000001 cycles: 1541871055 heartbeat IPC: 0.09220 cumulative IPC: 0.18240 (Simulation time: 0 hr 25 min 2 sec) 
Heartbeat CPU  0 instructions:  370000003 cycles: 1547416056 heartbeat IPC: 0.18034 cumulative IPC: 0.18239 (Simulation time: 0 hr 25 min 5 sec) 
Heartbeat CPU  0 instructions:  371000001 cycles: 1552674148 heartbeat IPC: 0.19018 cumulative IPC: 0.18242 (Simulation time: 0 hr 25 min 10 sec) 
Heartbeat CPU  0 instructions:  372000000 cycles: 1556937883 heartbeat IPC: 0.23454 cumulative IPC: 0.18257 (Simulation time: 0 hr 25 min 14 sec) 
Heartbeat CPU  0 instructions:  373000003 cycles: 1564167445 heartbeat IPC: 0.13832 cumulative IPC: 0.18235 (Simulation time: 0 hr 25 min 20 sec) 
Heartbeat CPU  0 instructions:  374000001 cycles: 1566688676 heartbeat IPC: 0.39663 cumulative IPC: 0.18271 (Simulation time: 0 hr 25 min 24 sec) 
Heartbeat CPU  0 instructions:  375000003 cycles: 1578812830 heartbeat IPC: 0.08248 cumulative IPC: 0.18191 (Simulation time: 0 hr 25 min 34 sec) 
Heartbeat CPU  0 instructions:  376000000 cycles: 1584502926 heartbeat IPC: 0.17574 cumulative IPC: 0.18189 (Simulation time: 0 hr 25 min 38 sec) 
Heartbeat CPU  0 instructions:  377000000 cycles: 1586294447 heartbeat IPC: 0.55818 cumulative IPC: 0.18233 (Simulation time: 0 hr 25 min 40 sec) 
Heartbeat CPU  0 instructions:  378000003 cycles: 1589403005 heartbeat IPC: 0.32169 cumulative IPC: 0.18261 (Simulation time: 0 hr 25 min 43 sec) 
Heartbeat CPU  0 instructions:  379000002 cycles: 1599828961 heartbeat IPC: 0.09591 cumulative IPC: 0.18202 (Simulation time: 0 hr 25 min 50 sec) 
Heartbeat CPU  0 instructions:  380000000 cycles: 1605517845 heartbeat IPC: 0.17578 cumulative IPC: 0.18200 (Simulation time: 0 hr 25 min 54 sec) 
Heartbeat CPU  0 instructions:  381000000 cycles: 1610767155 heartbeat IPC: 0.19050 cumulative IPC: 0.18203 (Simulation time: 0 hr 25 min 59 sec) 
Heartbeat CPU  0 instructions:  382000003 cycles: 1614875929 heartbeat IPC: 0.24338 cumulative IPC: 0.18219 (Simulation time: 0 hr 26 min 3 sec) 
Heartbeat CPU  0 instructions:  383000001 cycles: 1622049249 heartbeat IPC: 0.13941 cumulative IPC: 0.18200 (Simulation time: 0 hr 26 min 9 sec) 
Heartbeat CPU  0 instructions:  384000000 cycles: 1624513950 heartbeat IPC: 0.40573 cumulative IPC: 0.18235 (Simulation time: 0 hr 26 min 13 sec) 
Heartbeat CPU  0 instructions:  385000003 cycles: 1636997480 heartbeat IPC: 0.08011 cumulative IPC: 0.18154 (Simulation time: 0 hr 26 min 22 sec) 
Heartbeat CPU  0 instructions:  386000002 cycles: 1642335655 heartbeat IPC: 0.18733 cumulative IPC: 0.18156 (Simulation time: 0 hr 26 min 27 sec) 
Heartbeat CPU  0 instructions:  387000000 cycles: 1644126230 heartbeat IPC: 0.55848 cumulative IPC: 0.18198 (Simulation time: 0 hr 26 min 29 sec) 
Heartbeat CPU  0 instructions:  388000000 cycles: 1647686421 heartbeat IPC: 0.28088 cumulative IPC: 0.18221 (Simulation time: 0 hr 26 min 32 sec) 
Heartbeat CPU  0 instructions:  389000001 cycles: 1657680651 heartbeat IPC: 0.10006 cumulative IPC: 0.18169 (Simulation time: 0 hr 26 min 39 sec) 
Heartbeat CPU  0 instructions:  390000002 cycles: 1663607460 heartbeat IPC: 0.16873 cumulative IPC: 0.18164 (Simulation time: 0 hr 26 min 43 sec) 
Heartbeat CPU  0 instructions:  391000001 cycles: 1668783438 heartbeat IPC: 0.19320 cumulative IPC: 0.18168 (Simulation time: 0 hr 26 min 48 sec) 
Heartbeat CPU  0 instructions:  392000000 cycles: 1672942235 heartbeat IPC: 0.24045 cumulative IPC: 0.18183 (Simulation time: 0 hr 26 min 52 sec) 
Heartbeat CPU  0 instructions:  393000002 cycles: 1679907061 heartbeat IPC: 0.14358 cumulative IPC: 0.18167 (Simulation time: 0 hr 26 min 58 sec) 
Heartbeat CPU  0 instructions:  394000002 cycles: 1682299964 heartbeat IPC: 0.41790 cumulative IPC: 0.18202 (Simulation time: 0 hr 27 min 2 sec) 
Heartbeat CPU  0 instructions:  395000001 cycles: 1695167934 heartbeat IPC: 0.07771 cumulative IPC: 0.18119 (Simulation time: 0 hr 27 min 12 sec) 
Heartbeat CPU  0 instructions:  396000000 cycles: 1700147645 heartbeat IPC: 0.20081 cumulative IPC: 0.18125 (Simulation time: 0 hr 27 min 16 sec) 
Heartbeat CPU  0 instructions:  397000000 cycles: 1701930154 heartbeat IPC: 0.56101 cumulative IPC: 0.18167 (Simulation time: 0 hr 27 min 18 sec) 
Heartbeat CPU  0 instructions:  398000000 cycles: 1705929367 heartbeat IPC: 0.25005 cumulative IPC: 0.18183 (Simulation time: 0 hr 27 min 21 sec) 
Heartbeat CPU  0 instructions:  399000001 cycles: 1715542997 heartbeat IPC: 0.10402 cumulative IPC: 0.18138 (Simulation time: 0 hr 27 min 28 sec) 
Heartbeat CPU  0 instructions:  400000000 cycles: 1721751022 heartbeat IPC: 0.16108 cumulative IPC: 0.18130 (Simulation time: 0 hr 27 min 32 sec) 
Heartbeat CPU  0 instructions:  401000000 cycles: 1726814331 heartbeat IPC: 0.19750 cumulative IPC: 0.18135 (Simulation time: 0 hr 27 min 37 sec) 
Heartbeat CPU  0 instructions:  402000000 cycles: 1731072888 heartbeat IPC: 0.23482 cumulative IPC: 0.18149 (Simulation time: 0 hr 27 min 41 sec) 
Heartbeat CPU  0 instructions:  403000000 cycles: 1737792602 heartbeat IPC: 0.14882 cumulative IPC: 0.18136 (Simulation time: 0 hr 27 min 47 sec) 
Heartbeat CPU  0 instructions:  404000000 cycles: 1740613451 heartbeat IPC: 0.35450 cumulative IPC: 0.18165 (Simulation time: 0 hr 27 min 51 sec) 
Heartbeat CPU  0 instructions:  405000002 cycles: 1753434571 heartbeat IPC: 0.07800 cumulative IPC: 0.18086 (Simulation time: 0 hr 28 min 1 sec) 
Heartbeat CPU  0 instructions:  406000000 cycles: 1758087633 heartbeat IPC: 0.21491 cumulative IPC: 0.18096 (Simulation time: 0 hr 28 min 5 sec) 
Heartbeat CPU  0 instructions:  407000000 cycles: 1759865508 heartbeat IPC: 0.56247 cumulative IPC: 0.18136 (Simulation time: 0 hr 28 min 7 sec) 
Heartbeat CPU  0 instructions:  408000000 cycles: 1764174078 heartbeat IPC: 0.23210 cumulative IPC: 0.18149 (Simulation time: 0 hr 28 min 10 sec) 
Heartbeat CPU  0 instructions:  409000002 cycles: 1773423598 heartbeat IPC: 0.10811 cumulative IPC: 0.18109 (Simulation time: 0 hr 28 min 17 sec) 
Heartbeat CPU  0 instructions:  410000000 cycles: 1779965306 heartbeat IPC: 0.15286 cumulative IPC: 0.18098 (Simulation time: 0 hr 28 min 21 sec) 
Heartbeat CPU  0 instructions:  411000002 cycles: 1784869837 heartbeat IPC: 0.20389 cumulative IPC: 0.18105 (Simulation time: 0 hr 28 min 26 sec) 
Heartbeat CPU  0 instructions:  412000000 cycles: 1789224835 heartbeat IPC: 0.22962 cumulative IPC: 0.18117 (Simulation time: 0 hr 28 min 30 sec) 
Heartbeat CPU  0 instructions:  413000001 cycles: 1795736907 heartbeat IPC: 0.15356 cumulative IPC: 0.18106 (Simulation time: 0 hr 28 min 36 sec) 
Heartbeat CPU  0 instructions:  414000000 cycles: 1798876299 heartbeat IPC: 0.31853 cumulative IPC: 0.18131 (Simulation time: 0 hr 28 min 40 sec) 
Heartbeat CPU  0 instructions:  415000002 cycles: 1811646737 heartbeat IPC: 0.07831 cumulative IPC: 0.18056 (Simulation time: 0 hr 28 min 50 sec) 
Heartbeat CPU  0 instructions:  416000000 cycles: 1815913640 heartbeat IPC: 0.23436 cumulative IPC: 0.18069 (Simulation time: 0 hr 28 min 54 sec) 
Heartbeat CPU  0 instructions:  417000000 cycles: 1817680923 heartbeat IPC: 0.56584 cumulative IPC: 0.18108 (Simulation time: 0 hr 28 min 56 sec) 
Heartbeat CPU  0 instructions:  418000000 cycles: 1822324494 heartbeat IPC: 0.21535 cumulative IPC: 0.18117 (Simulation time: 0 hr 28 min 59 sec) 
Heartbeat CPU  0 instructions:  419000001 cycles: 1831201271 heartbeat IPC: 0.11265 cumulative IPC: 0.18083 (Simulation time: 0 hr 29 min 6 sec) 
Heartbeat CPU  0 instructions:  420000000 cycles: 1838075728 heartbeat IPC: 0.14547 cumulative IPC: 0.18069 (Simulation time: 0 hr 29 min 10 sec) 
Heartbeat CPU  0 instructions:  421000000 cycles: 1842838134 heartbeat IPC: 0.20998 cumulative IPC: 0.18077 (Simulation time: 0 hr 29 min 15 sec) 
Heartbeat CPU  0 instructions:  422000003 cycles: 1847336026 heartbeat IPC: 0.22233 cumulative IPC: 0.18087 (Simulation time: 0 hr 29 min 20 sec) 
Heartbeat CPU  0 instructions:  423000003 cycles: 1853619164 heartbeat IPC: 0.15916 cumulative IPC: 0.18080 (Simulation time: 0 hr 29 min 25 sec) 
Heartbeat CPU  0 instructions:  424000000 cycles: 1857062817 heartbeat IPC: 0.29039 cumulative IPC: 0.18101 (Simulation time: 0 hr 29 min 30 sec) 
Heartbeat CPU  0 instructions:  425000000 cycles: 1869863580 heartbeat IPC: 0.07812 cumulative IPC: 0.18028 (Simulation time: 0 hr 29 min 39 sec) 
Heartbeat CPU  0 instructions:  426000002 cycles: 1873815680 heartbeat IPC: 0.25303 cumulative IPC: 0.18043 (Simulation time: 0 hr 29 min 43 sec) 
Heartbeat CPU  0 instructions:  427000002 cycles: 1875572770 heartbeat IPC: 0.56912 cumulative IPC: 0.18081 (Simulation time: 0 hr 29 min 45 sec) 
Heartbeat CPU  0 instructions:  428000000 cycles: 1880503938 heartbeat IPC: 0.20279 cumulative IPC: 0.18087 (Simulation time: 0 hr 29 min 48 sec) 
Heartbeat CPU  0 instructions:  429000001 cycles: 1889095867 heartbeat IPC: 0.11639 cumulative IPC: 0.18057 (Simulation time: 0 hr 29 min 55 sec) 
Heartbeat CPU  0 instructions:  430000002 cycles: 1896238556 heartbeat IPC: 0.14000 cumulative IPC: 0.18041 (Simulation time: 0 hr 29 min 59 sec) 
Heartbeat CPU  0 instructions:  431000003 cycles: 1900890892 heartbeat IPC: 0.21495 cumulative IPC: 0.18050 (Simulation time: 0 hr 30 min 4 sec) 
Heartbeat CPU  0 instructions:  432000000 cycles: 1903795950 heartbeat IPC: 0.34423 cumulative IPC: 0.18076 (Simulation time: 0 hr 30 min 8 sec) 
Heartbeat CPU  0 instructions:  433000002 cycles: 1911924608 heartbeat IPC: 0.12302 cumulative IPC: 0.18050 (Simulation time: 0 hr 30 min 13 sec) 
Heartbeat CPU  0 instructions:  434000000 cycles: 1920755204 heartbeat IPC: 0.11324 cumulative IPC: 0.18018 (Simulation time: 0 hr 30 min 20 sec) 
Heartbeat CPU  0 instructions:  435000001 cycles: 1929201466 heartbeat IPC: 0.11840 cumulative IPC: 0.17990 (Simulation time: 0 hr 30 min 28 sec) 
Heartbeat CPU  0 instructions:  436000000 cycles: 1935362168 heartbeat IPC: 0.16232 cumulative IPC: 0.17984 (Simulation time: 0 hr 30 min 33 sec) 
Heartbeat CPU  0 instructions:  437000003 cycles: 1940703046 heartbeat IPC: 0.18724 cumulative IPC: 0.17986 (Simulation time: 0 hr 30 min 38 sec) 
Heartbeat CPU  0 instructions:  438000001 cycles: 1945568913 heartbeat IPC: 0.20551 cumulative IPC: 0.17993 (Simulation time: 0 hr 30 min 43 sec) 
Heartbeat CPU  0 instructions:  439000000 cycles: 1950947710 heartbeat IPC: 0.18591 cumulative IPC: 0.17995 (Simulation time: 0 hr 30 min 47 sec) 
Heartbeat CPU  0 instructions:  440000000 cycles: 1954997283 heartbeat IPC: 0.24694 cumulative IPC: 0.18009 (Simulation time: 0 hr 30 min 50 sec) 
Heartbeat CPU  0 instructions:  441000000 cycles: 1959119534 heartbeat IPC: 0.24259 cumulative IPC: 0.18023 (Simulation time: 0 hr 30 min 54 sec) 
Heartbeat CPU  0 instructions:  442000000 cycles: 1962010766 heartbeat IPC: 0.34587 cumulative IPC: 0.18048 (Simulation time: 0 hr 30 min 57 sec) 
Heartbeat CPU  0 instructions:  443000002 cycles: 1965051792 heartbeat IPC: 0.32884 cumulative IPC: 0.18072 (Simulation time: 0 hr 31 min 1 sec) 
Heartbeat CPU  0 instructions:  444000000 cycles: 1967597195 heartbeat IPC: 0.39286 cumulative IPC: 0.18100 (Simulation time: 0 hr 31 min 4 sec) 
Heartbeat CPU  0 instructions:  445000002 cycles: 1971271754 heartbeat IPC: 0.27214 cumulative IPC: 0.18118 (Simulation time: 0 hr 31 min 9 sec) 
Heartbeat CPU  0 instructions:  446000001 cycles: 1974255412 heartbeat IPC: 0.33516 cumulative IPC: 0.18142 (Simulation time: 0 hr 31 min 12 sec) 
Heartbeat CPU  0 instructions:  447000001 cycles: 1978432791 heartbeat IPC: 0.23938 cumulative IPC: 0.18155 (Simulation time: 0 hr 31 min 17 sec) 
Heartbeat CPU  0 instructions:  448000000 cycles: 1984591230 heartbeat IPC: 0.16238 cumulative IPC: 0.18148 (Simulation time: 0 hr 31 min 22 sec) 
Heartbeat CPU  0 instructions:  449000003 cycles: 1989059204 heartbeat IPC: 0.22382 cumulative IPC: 0.18158 (Simulation time: 0 hr 31 min 27 sec) 
Heartbeat CPU  0 instructions:  450000000 cycles: 1992621824 heartbeat IPC: 0.28069 cumulative IPC: 0.18177 (Simulation time: 0 hr 31 min 31 sec) 
Heartbeat CPU  0 instructions:  451000003 cycles: 1999466265 heartbeat IPC: 0.14610 cumulative IPC: 0.18164 (Simulation time: 0 hr 31 min 38 sec) 
Heartbeat CPU  0 instructions:  452000000 cycles: 2003481322 heartbeat IPC: 0.24906 cumulative IPC: 0.18178 (Simulation time: 0 hr 31 min 42 sec) 
Heartbeat CPU  0 instructions:  453000000 cycles: 2012204534 heartbeat IPC: 0.11464 cumulative IPC: 0.18148 (Simulation time: 0 hr 31 min 49 sec) 
Heartbeat CPU  0 instructions:  454000000 cycles: 2020950223 heartbeat IPC: 0.11434 cumulative IPC: 0.18118 (Simulation time: 0 hr 31 min 56 sec) 
Heartbeat CPU  0 instructions:  455000000 cycles: 2022781434 heartbeat IPC: 0.54609 cumulative IPC: 0.18152 (Simulation time: 0 hr 31 min 58 sec) 
Heartbeat CPU  0 instructions:  456000000 cycles: 2024356398 heartbeat IPC: 0.63494 cumulative IPC: 0.18188 (Simulation time: 0 hr 32 min 0 sec) 
Heartbeat CPU  0 instructions:  457000002 cycles: 2034362881 heartbeat IPC: 0.09994 cumulative IPC: 0.18147 (Simulation time: 0 hr 32 min 7 sec) 
Heartbeat CPU  0 instructions:  458000002 cycles: 2039687426 heartbeat IPC: 0.18781 cumulative IPC: 0.18148 (Simulation time: 0 hr 32 min 11 sec) 
Heartbeat CPU  0 instructions:  459000000 cycles: 2046392920 heartbeat IPC: 0.14913 cumulative IPC: 0.18138 (Simulation time: 0 hr 32 min 16 sec) 
Heartbeat CPU  0 instructions:  460000000 cycles: 2051239227 heartbeat IPC: 0.20634 cumulative IPC: 0.18144 (Simulation time: 0 hr 32 min 20 sec) 
Heartbeat CPU  0 instructions:  461000001 cycles: 2058046551 heartbeat IPC: 0.14690 cumulative IPC: 0.18132 (Simulation time: 0 hr 32 min 27 sec) 
Heartbeat CPU  0 instructions:  462000001 cycles: 2060748137 heartbeat IPC: 0.37015 cumulative IPC: 0.18157 (Simulation time: 0 hr 32 min 31 sec) 
Heartbeat CPU  0 instructions:  463000000 cycles: 2072249029 heartbeat IPC: 0.08695 cumulative IPC: 0.18103 (Simulation time: 0 hr 32 min 40 sec) 
Heartbeat CPU  0 instructions:  464000000 cycles: 2078436273 heartbeat IPC: 0.16162 cumulative IPC: 0.18097 (Simulation time: 0 hr 32 min 44 sec) 
Heartbeat CPU  0 instructions:  465000002 cycles: 2080242730 heartbeat IPC: 0.55357 cumulative IPC: 0.18131 (Simulation time: 0 hr 32 min 46 sec) 
Heartbeat CPU  0 instructions:  466000002 cycles: 2082518073 heartbeat IPC: 0.43949 cumulative IPC: 0.18160 (Simulation time: 0 hr 32 min 49 sec) 
Heartbeat CPU  0 instructions:  467000001 cycles: 2093636662 heartbeat IPC: 0.08994 cumulative IPC: 0.18109 (Simulation time: 0 hr 32 min 56 sec) 
Heartbeat CPU  0 instructions:  468000000 cycles: 2099080291 heartbeat IPC: 0.18370 cumulative IPC: 0.18110 (Simulation time: 0 hr 33 min 0 sec) 
Heartbeat CPU  0 instructions:  469000000 cycles: 2104358383 heartbeat IPC: 0.18946 cumulative IPC: 0.18112 (Simulation time: 0 hr 33 min 5 sec) 
Heartbeat CPU  0 instructions:  470000000 cycles: 2108744655 heartbeat IPC: 0.22798 cumulative IPC: 0.18122 (Simulation time: 0 hr 33 min 9 sec) 
Heartbeat CPU  0 instructions:  471000002 cycles: 2115970429 heartbeat IPC: 0.13839 cumulative IPC: 0.18107 (Simulation time: 0 hr 33 min 16 sec) 
Heartbeat CPU  0 instructions:  472000000 cycles: 2118550798 heartbeat IPC: 0.38754 cumulative IPC: 0.18133 (Simulation time: 0 hr 33 min 20 sec) 
Heartbeat CPU  0 instructions:  473000003 cycles: 2130408352 heartbeat IPC: 0.08433 cumulative IPC: 0.18078 (Simulation time: 0 hr 33 min 29 sec) 
Heartbeat CPU  0 instructions:  474000001 cycles: 2136318785 heartbeat IPC: 0.16919 cumulative IPC: 0.18074 (Simulation time: 0 hr 33 min 34 sec) 
Heartbeat CPU  0 instructions:  475000000 cycles: 2138117255 heartbeat IPC: 0.55603 cumulative IPC: 0.18107 (Simulation time: 0 hr 33 min 36 sec) 
Heartbeat CPU  0 instructions:  476000000 cycles: 2140885277 heartbeat IPC: 0.36127 cumulative IPC: 0.18131 (Simulation time: 0 hr 33 min 38 sec) 
Heartbeat CPU  0 instructions:  477000003 cycles: 2151609363 heartbeat IPC: 0.09325 cumulative IPC: 0.18086 (Simulation time: 0 hr 33 min 45 sec) 
Heartbeat CPU  0 instructions:  478000000 cycles: 2157116526 heartbeat IPC: 0.18158 cumulative IPC: 0.18086 (Simulation time: 0 hr 33 min 49 sec) 
Heartbeat CPU  0 instructions:  479000001 cycles: 2162404908 heartbeat IPC: 0.18909 cumulative IPC: 0.18088 (Simulation time: 0 hr 33 min 54 sec) 
Heartbeat CPU  0 instructions:  480000000 cycles: 2166598979 heartbeat IPC: 0.23843 cumulative IPC: 0.18099 (Simulation time: 0 hr 33 min 58 sec) 
Heartbeat CPU  0 instructions:  481000002 cycles: 2173810600 heartbeat IPC: 0.13867 cumulative IPC: 0.18085 (Simulation time: 0 hr 34 min 5 sec) 
Heartbeat CPU  0 instructions:  482000003 cycles: 2176312875 heartbeat IPC: 0.39964 cumulative IPC: 0.18111 (Simulation time: 0 hr 34 min 9 sec) 
Heartbeat CPU  0 instructions:  483000000 cycles: 2188592100 heartbeat IPC: 0.08144 cumulative IPC: 0.18053 (Simulation time: 0 hr 34 min 18 sec) 
Heartbeat CPU  0 instructions:  484000000 cycles: 2194139269 heartbeat IPC: 0.18027 cumulative IPC: 0.18053 (Simulation time: 0 hr 34 min 23 sec) 
Heartbeat CPU  0 instructions:  485000000 cycles: 2195926856 heartbeat IPC: 0.55941 cumulative IPC: 0.18085 (Simulation time: 0 hr 34 min 25 sec) 
Heartbeat CPU  0 instructions:  486000003 cycles: 2199213627 heartbeat IPC: 0.30425 cumulative IPC: 0.18104 (Simulation time: 0 hr 34 min 28 sec) 
Heartbeat CPU  0 instructions:  487000000 cycles: 2209479809 heartbeat IPC: 0.09741 cumulative IPC: 0.18064 (Simulation time: 0 hr 34 min 34 sec) 
Heartbeat CPU  0 instructions:  488000000 cycles: 2215322918 heartbeat IPC: 0.17114 cumulative IPC: 0.18061 (Simulation time: 0 hr 34 min 38 sec) 
Heartbeat CPU  0 instructions:  489000000 cycles: 2220566445 heartbeat IPC: 0.19071 cumulative IPC: 0.18064 (Simulation time: 0 hr 34 min 43 sec) 
Heartbeat CPU  0 instructions:  490000002 cycles: 2224654890 heartbeat IPC: 0.24459 cumulative IPC: 0.18076 (Simulation time: 0 hr 34 min 47 sec) 
Heartbeat CPU  0 instructions:  491000002 cycles: 2231739619 heartbeat IPC: 0.14115 cumulative IPC: 0.18063 (Simulation time: 0 hr 34 min 53 sec) 
Heartbeat CPU  0 instructions:  492000000 cycles: 2234181843 heartbeat IPC: 0.40946 cumulative IPC: 0.18089 (Simulation time: 0 hr 34 min 57 sec) 
Heartbeat CPU  0 instructions:  493000003 cycles: 2246882859 heartbeat IPC: 0.07873 cumulative IPC: 0.18029 (Simulation time: 0 hr 35 min 6 sec) 
Heartbeat CPU  0 instructions:  494000000 cycles: 2252059296 heartbeat IPC: 0.19318 cumulative IPC: 0.18032 (Simulation time: 0 hr 35 min 11 sec) 
Heartbeat CPU  0 instructions:  495000000 cycles: 2253846709 heartbeat IPC: 0.55947 cumulative IPC: 0.18063 (Simulation time: 0 hr 35 min 13 sec) 
Heartbeat CPU  0 instructions:  496000000 cycles: 2257576660 heartbeat IPC: 0.26810 cumulative IPC: 0.18078 (Simulation time: 0 hr 35 min 16 sec) 
Heartbeat CPU  0 instructions:  497000000 cycles: 2267411294 heartbeat IPC: 0.10168 cumulative IPC: 0.18043 (Simulation time: 0 hr 35 min 23 sec) 
Heartbeat CPU  0 instructions:  498000000 cycles: 2273474950 heartbeat IPC: 0.16492 cumulative IPC: 0.18038 (Simulation time: 0 hr 35 min 27 sec) 
Heartbeat CPU  0 instructions:  499000002 cycles: 2278650255 heartbeat IPC: 0.19323 cumulative IPC: 0.18041 (Simulation time: 0 hr 35 min 32 sec) 
Heartbeat CPU  0 instructions:  500000000 cycles: 2282871071 heartbeat IPC: 0.23692 cumulative IPC: 0.18052 (Simulation time: 0 hr 35 min 36 sec) 
Heartbeat CPU  0 instructions:  501000000 cycles: 2289700920 heartbeat IPC: 0.14642 cumulative IPC: 0.18042 (Simulation time: 0 hr 35 min 42 sec) 
Heartbeat CPU  0 instructions:  502000000 cycles: 2292274173 heartbeat IPC: 0.38861 cumulative IPC: 0.18066 (Simulation time: 0 hr 35 min 46 sec) 
Heartbeat CPU  0 instructions:  503000003 cycles: 2305154230 heartbeat IPC: 0.07764 cumulative IPC: 0.18006 (Simulation time: 0 hr 35 min 56 sec) 
Heartbeat CPU  0 instructions:  504000000 cycles: 2310001765 heartbeat IPC: 0.20629 cumulative IPC: 0.18012 (Simulation time: 0 hr 36 min 0 sec) 
Heartbeat CPU  0 instructions:  505000000 cycles: 2311783787 heartbeat IPC: 0.56116 cumulative IPC: 0.18042 (Simulation time: 0 hr 36 min 2 sec) 
Heartbeat CPU  0 instructions:  506000000 cycles: 2315950576 heartbeat IPC: 0.23999 cumulative IPC: 0.18053 (Simulation time: 0 hr 36 min 5 sec) 
Heartbeat CPU  0 instructions:  507000002 cycles: 2325365065 heartbeat IPC: 0.10622 cumulative IPC: 0.18022 (Simulation time: 0 hr 36 min 11 sec) 
Heartbeat CPU  0 instructions:  508000000 cycles: 2331752734 heartbeat IPC: 0.15655 cumulative IPC: 0.18016 (Simulation time: 0 hr 36 min 16 sec) 
Heartbeat CPU  0 instructions:  509000001 cycles: 2336725714 heartbeat IPC: 0.20109 cumulative IPC: 0.18020 (Simulation time: 0 hr 36 min 20 sec) 
Heartbeat CPU  0 instructions:  510000003 cycles: 2341045665 heartbeat IPC: 0.23148 cumulative IPC: 0.18030 (Simulation time: 0 hr 36 min 25 sec) 
Heartbeat CPU  0 instructions:  511000000 cycles: 2347666119 heartbeat IPC: 0.15105 cumulative IPC: 0.18022 (Simulation time: 0 hr 36 min 31 sec) 
Heartbeat CPU  0 instructions:  512000000 cycles: 2350629210 heartbeat IPC: 0.33749 cumulative IPC: 0.18042 (Simulation time: 0 hr 36 min 35 sec) 
Heartbeat CPU  0 instructions:  513000001 cycles: 2363430074 heartbeat IPC: 0.07812 cumulative IPC: 0.17985 (Simulation time: 0 hr 36 min 45 sec) 
Heartbeat CPU  0 instructions:  514000000 cycles: 2367891000 heartbeat IPC: 0.22417 cumulative IPC: 0.17994 (Simulation time: 0 hr 36 min 48 sec) 
Heartbeat CPU  0 instructions:  515000001 cycles: 2369662006 heartbeat IPC: 0.56465 cumulative IPC: 0.18023 (Simulation time: 0 hr 36 min 50 sec) 
Heartbeat CPU  0 instructions:  516000000 cycles: 2374127134 heartbeat IPC: 0.22396 cumulative IPC: 0.18032 (Simulation time: 0 hr 36 min 54 sec) 
Heartbeat CPU  0 instructions:  517000001 cycles: 2383205711 heartbeat IPC: 0.11015 cumulative IPC: 0.18004 (Simulation time: 0 hr 37 min 0 sec) 
Heartbeat CPU  0 instructions:  518000000 cycles: 2389973635 heartbeat IPC: 0.14776 cumulative IPC: 0.17995 (Simulation time: 0 hr 37 min 4 sec) 
Heartbeat CPU  0 instructions:  519000002 cycles: 2394808410 heartbeat IPC: 0.20684 cumulative IPC: 0.18000 (Simulation time: 0 hr 37 min 9 sec) 
Heartbeat CPU  0 instructions:  520000000 cycles: 2399223879 heartbeat IPC: 0.22648 cumulative IPC: 0.18009 (Simulation time: 0 hr 37 min 14 sec) 
Heartbeat CPU  0 instructions:  521000000 cycles: 2405620695 heartbeat IPC: 0.15633 cumulative IPC: 0.18003 (Simulation time: 0 hr 37 min 19 sec) 
Heartbeat CPU  0 instructions:  522000001 cycles: 2408914359 heartbeat IPC: 0.30361 cumulative IPC: 0.18020 (Simulation time: 0 hr 37 min 24 sec) 
Heartbeat CPU  0 instructions:  523000002 cycles: 2421729958 heartbeat IPC: 0.07803 cumulative IPC: 0.17964 (Simulation time: 0 hr 37 min 33 sec) 
Heartbeat CPU  0 instructions:  524000000 cycles: 2425840796 heartbeat IPC: 0.24326 cumulative IPC: 0.17975 (Simulation time: 0 hr 37 min 37 sec) 
Heartbeat CPU  0 instructions:  525000003 cycles: 2427605595 heartbeat IPC: 0.56664 cumulative IPC: 0.18004 (Simulation time: 0 hr 37 min 39 sec) 
Heartbeat CPU  0 instructions:  526000002 cycles: 2432389847 heartbeat IPC: 0.20902 cumulative IPC: 0.18010 (Simulation time: 0 hr 37 min 43 sec) 
Heartbeat CPU  0 instructions:  527000001 cycles: 2441128900 heartbeat IPC: 0.11443 cumulative IPC: 0.17986 (Simulation time: 0 hr 37 min 49 sec) 
Heartbeat CPU  0 instructions:  528000000 cycles: 2448181179 heartbeat IPC: 0.14180 cumulative IPC: 0.17975 (Simulation time: 0 hr 37 min 53 sec) 
Heartbeat CPU  0 instructions:  529000001 cycles: 2452872461 heartbeat IPC: 0.21316 cumulative IPC: 0.17981 (Simulation time: 0 hr 37 min 58 sec) 
Heartbeat CPU  0 instructions:  530000001 cycles: 2457465450 heartbeat IPC: 0.21772 cumulative IPC: 0.17989 (Simulation time: 0 hr 38 min 3 sec) 
Heartbeat CPU  0 instructions:  531000000 cycles: 2463559754 heartbeat IPC: 0.16409 cumulative IPC: 0.17985 (Simulation time: 0 hr 38 min 8 sec) 
Heartbeat CPU  0 instructions:  532000000 cycles: 2467212114 heartbeat IPC: 0.27380 cumulative IPC: 0.17999 (Simulation time: 0 hr 38 min 12 sec) 
Heartbeat CPU  0 instructions:  533000000 cycles: 2479934800 heartbeat IPC: 0.07860 cumulative IPC: 0.17945 (Simulation time: 0 hr 38 min 22 sec) 
Heartbeat CPU  0 instructions:  534000001 cycles: 2483693139 heartbeat IPC: 0.26608 cumulative IPC: 0.17959 (Simulation time: 0 hr 38 min 25 sec) 
Heartbeat CPU  0 instructions:  535000003 cycles: 2485452184 heartbeat IPC: 0.56849 cumulative IPC: 0.17987 (Simulation time: 0 hr 38 min 27 sec) 
Heartbeat CPU  0 instructions:  536000000 cycles: 2490547343 heartbeat IPC: 0.19626 cumulative IPC: 0.17991 (Simulation time: 0 hr 38 min 31 sec) 
Heartbeat CPU  0 instructions:  537000001 cycles: 2498959204 heartbeat IPC: 0.11888 cumulative IPC: 0.17970 (Simulation time: 0 hr 38 min 37 sec) 
Heartbeat CPU  0 instructions:  538000002 cycles: 2506276151 heartbeat IPC: 0.13667 cumulative IPC: 0.17957 (Simulation time: 0 hr 38 min 41 sec) 
Heartbeat CPU  0 instructions:  539000000 cycles: 2510770275 heartbeat IPC: 0.22251 cumulative IPC: 0.17965 (Simulation time: 0 hr 38 min 46 sec) 
Heartbeat CPU  0 instructions:  540000000 cycles: 2515582394 heartbeat IPC: 0.20781 cumulative IPC: 0.17970 (Simulation time: 0 hr 38 min 51 sec) 
Heartbeat CPU  0 instructions:  541000002 cycles: 2521442545 heartbeat IPC: 0.17064 cumulative IPC: 0.17968 (Simulation time: 0 hr 38 min 57 sec) 
Heartbeat CPU  0 instructions:  542000002 cycles: 2525326630 heartbeat IPC: 0.25746 cumulative IPC: 0.17980 (Simulation time: 0 hr 39 min 2 sec) 
Heartbeat CPU  0 instructions:  543000003 cycles: 2538083855 heartbeat IPC: 0.07839 cumulative IPC: 0.17928 (Simulation time: 0 hr 39 min 12 sec) 
Heartbeat CPU  0 instructions:  544000000 cycles: 2541532151 heartbeat IPC: 0.29000 cumulative IPC: 0.17943 (Simulation time: 0 hr 39 min 15 sec) 
Heartbeat CPU  0 instructions:  545000000 cycles: 2543276817 heartbeat IPC: 0.57318 cumulative IPC: 0.17971 (Simulation time: 0 hr 39 min 17 sec) 
Heartbeat CPU  0 instructions:  546000000 cycles: 2548667473 heartbeat IPC: 0.18551 cumulative IPC: 0.17972 (Simulation time: 0 hr 39 min 21 sec) 
Heartbeat CPU  0 instructions:  547000001 cycles: 2556757378 heartbeat IPC: 0.12361 cumulative IPC: 0.17954 (Simulation time: 0 hr 39 min 27 sec) 
Heartbeat CPU  0 instructions:  548000000 cycles: 2564348128 heartbeat IPC: 0.13174 cumulative IPC: 0.17940 (Simulation time: 0 hr 39 min 32 sec) 
Heartbeat CPU  0 instructions:  549000001 cycles: 2568753256 heartbeat IPC: 0.22701 cumulative IPC: 0.17948 (Simulation time: 0 hr 39 min 36 sec) 
Heartbeat CPU  0 instructions:  550000002 cycles: 2571514447 heartbeat IPC: 0.36216 cumulative IPC: 0.17968 (Simulation time: 0 hr 39 min 40 sec) 
Heartbeat CPU  0 instructions:  551000002 cycles: 2580114995 heartbeat IPC: 0.11627 cumulative IPC: 0.17946 (Simulation time: 0 hr 39 min 46 sec) 
Heartbeat CPU  0 instructions:  552000000 cycles: 2588647615 heartbeat IPC: 0.11720 cumulative IPC: 0.17925 (Simulation time: 0 hr 39 min 52 sec) 
Heartbeat CPU  0 instructions:  553000000 cycles: 2597119752 heartbeat IPC: 0.11803 cumulative IPC: 0.17905 (Simulation time: 0 hr 40 min 0 sec) 
Heartbeat CPU  0 instructions:  554000003 cycles: 2603300710 heartbeat IPC: 0.16179 cumulative IPC: 0.17901 (Simulation time: 0 hr 40 min 6 sec) 
Heartbeat CPU  0 instructions:  555000003 cycles: 2608542439 heartbeat IPC: 0.19078 cumulative IPC: 0.17903 (Simulation time: 0 hr 40 min 11 sec) 
Heartbeat CPU  0 instructions:  556000000 cycles: 2613424029 heartbeat IPC: 0.20485 cumulative IPC: 0.17908 (Simulation time: 0 hr 40 min 15 sec) 
Heartbeat CPU  0 instructions:  557000000 cycles: 2618805433 heartbeat IPC: 0.18583 cumulative IPC: 0.17909 (Simulation time: 0 hr 40 min 20 sec) 
Heartbeat CPU  0 instructions:  558000001 cycles: 2622865087 heartbeat IPC: 0.24633 cumulative IPC: 0.17920 (Simulation time: 0 hr 40 min 23 sec) 
Heartbeat CPU  0 instructions:  559000000 cycles: 2626937327 heartbeat IPC: 0.24556 cumulative IPC: 0.17931 (Simulation time: 0 hr 40 min 27 sec) 
Heartbeat CPU  0 instructions:  560000000 cycles: 2629801184 heartbeat IPC: 0.34918 cumulative IPC: 0.17950 (Simulation time: 0 hr 40 min 30 sec) 
Heartbeat CPU  0 instructions:  561000001 cycles: 2632847735 heartbeat IPC: 0.32824 cumulative IPC: 0.17967 (Simulation time: 0 hr 40 min 33 sec) 
Heartbeat CPU  0 instructions:  562000000 cycles: 2635400017 heartbeat IPC: 0.39181 cumulative IPC: 0.17988 (Simulation time: 0 hr 40 min 37 sec) 
Heartbeat CPU  0 instructions:  563000002 cycles: 2639035780 heartbeat IPC: 0.27505 cumulative IPC: 0.18002 (Simulation time: 0 hr 40 min 42 sec) 
Heartbeat CPU  0 instructions:  564000000 cycles: 2642179336 heartbeat IPC: 0.31811 cumulative IPC: 0.18019 (Simulation time: 0 hr 40 min 46 sec) 
Heartbeat CPU  0 instructions:  565000002 cycles: 2646484774 heartbeat IPC: 0.23226 cumulative IPC: 0.18027 (Simulation time: 0 hr 40 min 50 sec) 
Heartbeat CPU  0 instructions:  566000003 cycles: 2652344372 heartbeat IPC: 0.17066 cumulative IPC: 0.18025 (Simulation time: 0 hr 40 min 55 sec) 
Heartbeat CPU  0 instructions:  567000000 cycles: 2656865623 heartbeat IPC: 0.22118 cumulative IPC: 0.18032 (Simulation time: 0 hr 41 min 0 sec) 
Heartbeat CPU  0 instructions:  568000000 cycles: 2660471804 heartbeat IPC: 0.27730 cumulative IPC: 0.18046 (Simulation time: 0 hr 41 min 4 sec) 
Heartbeat CPU  0 instructions:  569000000 cycles: 2667334973 heartbeat IPC: 0.14571 cumulative IPC: 0.18037 (Simulation time: 0 hr 41 min 11 sec) 
Heartbeat CPU  0 instructions:  570000002 cycles: 2671132044 heartbeat IPC: 0.26336 cumulative IPC: 0.18049 (Simulation time: 0 hr 41 min 15 sec) 
Heartbeat CPU  0 instructions:  571000000 cycles: 2680307458 heartbeat IPC: 0.10899 cumulative IPC: 0.18024 (Simulation time: 0 hr 41 min 22 sec) 
Heartbeat CPU  0 instructions:  572000000 cycles: 2688677289 heartbeat IPC: 0.11948 cumulative IPC: 0.18004 (Simulation time: 0 hr 41 min 29 sec) 
Heartbeat CPU  0 instructions:  573000002 cycles: 2690498594 heartbeat IPC: 0.54906 cumulative IPC: 0.18030 (Simulation time: 0 hr 41 min 31 sec) 
Heartbeat CPU  0 instructions:  574000002 cycles: 2692043799 heartbeat IPC: 0.64716 cumulative IPC: 0.18057 (Simulation time: 0 hr 41 min 33 sec) 
Heartbeat CPU  0 instructions:  575000000 cycles: 2701976004 heartbeat IPC: 0.10068 cumulative IPC: 0.18027 (Simulation time: 0 hr 41 min 39 sec) 
Heartbeat CPU  0 instructions:  576000000 cycles: 2707065509 heartbeat IPC: 0.19648 cumulative IPC: 0.18030 (Simulation time: 0 hr 41 min 43 sec) 
Heartbeat CPU  0 instructions:  577000000 cycles: 2713919885 heartbeat IPC: 0.14589 cumulative IPC: 0.18021 (Simulation time: 0 hr 41 min 48 sec) 
Heartbeat CPU  0 instructions:  578000002 cycles: 2718753817 heartbeat IPC: 0.20687 cumulative IPC: 0.18026 (Simulation time: 0 hr 41 min 53 sec) 
Heartbeat CPU  0 instructions:  579000002 cycles: 2729548718 heartbeat IPC: 0.09264 cumulative IPC: 0.17991 (Simulation time: 0 hr 42 min 2 sec) 
Heartbeat CPU  0 instructions:  580000000 cycles: 2733861875 heartbeat IPC: 0.23185 cumulative IPC: 0.17999 (Simulation time: 0 hr 42 min 6 sec) 
Heartbeat CPU  0 instructions:  581000000 cycles: 2739348371 heartbeat IPC: 0.18227 cumulative IPC: 0.18000 (Simulation time: 0 hr 42 min 12 sec) 
Heartbeat CPU  0 instructions:  582000002 cycles: 2751864493 heartbeat IPC: 0.07990 cumulative IPC: 0.17953 (Simulation time: 0 hr 42 min 21 sec) 
Heartbeat CPU  0 instructions:  583000000 cycles: 2753718019 heartbeat IPC: 0.53951 cumulative IPC: 0.17978 (Simulation time: 0 hr 42 min 23 sec) 
Heartbeat CPU  0 instructions:  584000000 cycles: 2755441193 heartbeat IPC: 0.58032 cumulative IPC: 0.18003 (Simulation time: 0 hr 42 min 26 sec) 
Heartbeat CPU  0 instructions:  585000000 cycles: 2762063118 heartbeat IPC: 0.15101 cumulative IPC: 0.17996 (Simulation time: 0 hr 42 min 31 sec) 
Heartbeat CPU  0 instructions:  586000000 cycles: 2769015619 heartbeat IPC: 0.14383 cumulative IPC: 0.17987 (Simulation time: 0 hr 42 min 37 sec) 
Heartbeat CPU  0 instructions:  587000002 cycles: 2777056403 heartbeat IPC: 0.12437 cumulative IPC: 0.17971 (Simulation time: 0 hr 42 min 43 sec) 
Heartbeat CPU  0 instructions:  588000000 cycles: 2781113479 heartbeat IPC: 0.24648 cumulative IPC: 0.17981 (Simulation time: 0 hr 42 min 48 sec) 
Heartbeat CPU  0 instructions:  589000001 cycles: 2786092244 heartbeat IPC: 0.20085 cumulative IPC: 0.17984 (Simulation time: 0 hr 42 min 53 sec) 
Heartbeat CPU  0 instructions:  590000000 cycles: 2791437255 heartbeat IPC: 0.18709 cumulative IPC: 0.17986 (Simulation time: 0 hr 42 min 58 sec) 
Heartbeat CPU  0 instructions:  591000000 cycles: 2795880114 heartbeat IPC: 0.22508 cumulative IPC: 0.17993 (Simulation time: 0 hr 43 min 3 sec) 
Heartbeat CPU  0 instructions:  592000000 cycles: 2808737148 heartbeat IPC: 0.07778 cumulative IPC: 0.17945 (Simulation time: 0 hr 43 min 13 sec) 
Heartbeat CPU  0 instructions:  593000003 cycles: 2811521825 heartbeat IPC: 0.35911 cumulative IPC: 0.17964 (Simulation time: 0 hr 43 min 15 sec) 
Heartbeat CPU  0 instructions:  594000003 cycles: 2813267279 heartbeat IPC: 0.57292 cumulative IPC: 0.17989 (Simulation time: 0 hr 43 min 17 sec) 
Heartbeat CPU  0 instructions:  595000003 cycles: 2819008012 heartbeat IPC: 0.17419 cumulative IPC: 0.17987 (Simulation time: 0 hr 43 min 22 sec) 
Heartbeat CPU  0 instructions:  596000000 cycles: 2826700217 heartbeat IPC: 0.13000 cumulative IPC: 0.17973 (Simulation time: 0 hr 43 min 27 sec) 
Heartbeat CPU  0 instructions:  597000002 cycles: 2834129946 heartbeat IPC: 0.13459 cumulative IPC: 0.17961 (Simulation time: 0 hr 43 min 32 sec) 
Heartbeat CPU  0 instructions:  598000001 cycles: 2838522518 heartbeat IPC: 0.22766 cumulative IPC: 0.17969 (Simulation time: 0 hr 43 min 37 sec) 
Heartbeat CPU  0 instructions:  599000003 cycles: 2844344660 heartbeat IPC: 0.17176 cumulative IPC: 0.17967 (Simulation time: 0 hr 43 min 42 sec) 
Heartbeat CPU  0 instructions:  600000000 cycles: 2849370463 heartbeat IPC: 0.19897 cumulative IPC: 0.17971 (Simulation time: 0 hr 43 min 47 sec) 
Finished CPU 0 instructions: 500000000 cycles: 2782299987 cumulative IPC: 0.17971 (Simulation time: 0 hr 43 min 47 sec) 

ChampSim completed all CPUs

[ROI Statistics]
Core_0_instructions 500000000
Core_0_cycles 2782299987
Core_0_IPC 0.17971

Core_0_branch_prediction_accuracy 95.09196
Core_0_branch_MPKI 8.72608
Core_0_average_ROB_occupancy_at_mispredict 84.36062

Core_0_L1D_total_access 103067770
Core_0_L1D_total_hit 76540566
Core_0_L1D_total_miss 26527204
Core_0_L1D_loads 77415342
Core_0_L1D_load_hit 54827257
Core_0_L1D_load_miss 22588085
Core_0_L1D_RFOs 25652428
Core_0_L1D_RFO_hit 21713309
Core_0_L1D_RFO_miss 3939119
Core_0_L1D_prefetches 0
Core_0_L1D_prefetch_hit 0
Core_0_L1D_prefetch_miss 0
Core_0_L1D_writebacks 0
Core_0_L1D_writeback_hit 0
Core_0_L1D_writeback_miss 0
Core_0_L1D_prefetch_requested 0
Core_0_L1D_prefetch_dropped 0
Core_0_L1D_prefetch_issued 0
Core_0_L1D_prefetch_filled 0
Core_0_L1D_prefetch_useful 0
Core_0_L1D_prefetch_useless 0
Core_0_L1D_prefetch_late 0
Core_0_L1D_average_miss_latency 436.61897

Core_0_L1D_rq_access 150236724
Core_0_L1D_rq_forward 0
Core_0_L1D_rq_merged 66094688
Core_0_L1D_rq_to_cache 84140982
Core_0_L1D_rq_full 0

Core_0_L1D_wq_access 35310153
Core_0_L1D_wq_forward 1054
Core_0_L1D_wq_merged 36797
Core_0_L1D_wq_to_cache 35273356
Core_0_L1D_wq_full 81138446

Core_0_L1D_pq_access 0
Core_0_L1D_pq_forward 0
Core_0_L1D_pq_merged 0
Core_0_L1D_pq_to_cache 0
Core_0_L1D_pq_full 0

Core_0_L1D_acc_epochs 2733130
Core_0_L1D_acc_level_0 2733130
Core_0_L1D_acc_level_1 0
Core_0_L1D_acc_level_2 0
Core_0_L1D_acc_level_3 0
Core_0_L1D_acc_level_4 0
Core_0_L1D_acc_level_5 0
Core_0_L1D_acc_level_6 0
Core_0_L1D_acc_level_7 0
Core_0_L1D_acc_level_8 0
Core_0_L1D_acc_level_9 0

Core_0_L1I_total_access 104893358
Core_0_L1I_total_hit 104890160
Core_0_L1I_total_miss 3198
Core_0_L1I_loads 104893358
Core_0_L1I_load_hit 104890160
Core_0_L1I_load_miss 3198
Core_0_L1I_RFOs 0
Core_0_L1I_RFO_hit 0
Core_0_L1I_RFO_miss 0
Core_0_L1I_prefetches 0
Core_0_L1I_prefetch_hit 0
Core_0_L1I_prefetch_miss 0
Core_0_L1I_writebacks 0
Core_0_L1I_writeback_hit 0
Core_0_L1I_writeback_miss 0
Core_0_L1I_prefetch_requested 0
Core_0_L1I_prefetch_dropped 0
Core_0_L1I_prefetch_issued 0
Core_0_L1I_prefetch_filled 0
Core_0_L1I_prefetch_useful 0
Core_0_L1I_prefetch_useless 0
Core_0_L1I_prefetch_late 0
Core_0_L1I_average_miss_latency 672.97967

Core_0_L1I_rq_access 500000000
Core_0_L1I_rq_forward 0
Core_0_L1I_rq_merged 395103456
Core_0_L1I_rq_to_cache 104896544
Core_0_L1I_rq_full 0

Core_0_L1I_wq_access 0
Core_0_L1I_wq_forward 0
Core_0_L1I_wq_merged 0
Core_0_L1I_wq_to_cache 0
Core_0_L1I_wq_full 0

Core_0_L1I_pq_access 0
Core_0_L1I_pq_forward 0
Core_0_L1I_pq_merged 0
Core_0_L1I_pq_to_cache 0
Core_0_L1I_pq_full 0

Core_0_L1I_acc_epochs 2733130
Core_0_L1I_acc_level_0 2733130
Core_0_L1I_acc_level_1 0
Core_0_L1I_acc_level_2 0
Core_0_L1I_acc_level_3 0
Core_0_L1I_acc_level_4 0
Core_0_L1I_acc_level_5 0
Core_0_L1I_acc_level_6 0
Core_0_L1I_acc_level_7 0
Core_0_L1I_acc_level_8 0
Core_0_L1I_acc_level_9 0

Core_0_L2C_total_access 41094315
Core_0_L2C_total_hit 19234994
Core_0_L2C_total_miss 21859321
Core_0_L2C_loads 22589424
Core_0_L2C_load_hit 6504413
Core_0_L2C_load_miss 16085011
Core_0_L2C_RFOs 3938836
Core_0_L2C_RFO_hit 502070
Core_0_L2C_RFO_miss 3436766
Core_0_L2C_prefetches 3625561
Core_0_L2C_prefetch_hit 1288878
Core_0_L2C_prefetch_miss 2336683
Core_0_L2C_writebacks 10940494
Core_0_L2C_writeback_hit 10939633
Core_0_L2C_writeback_miss 861
Core_0_L2C_prefetch_requested 41278758
Core_0_L2C_prefetch_dropped 98
Core_0_L2C_prefetch_issued 41278660
Core_0_L2C_prefetch_filled 2982515
Core_0_L2C_prefetch_useful 2810132
Core_0_L2C_prefetch_useless 172373
Core_0_L2C_prefetch_late 622069
Core_0_L2C_average_miss_latency 525.07861

Core_0_L2C_rq_access 26530402
Core_0_L2C_rq_forward 0
Core_0_L2C_rq_merged 0
Core_0_L2C_rq_to_cache 26528260
Core_0_L2C_rq_full 0

Core_0_L2C_wq_access 10940494
Core_0_L2C_wq_forward 2163
Core_0_L2C_wq_merged 0
Core_0_L2C_wq_to_cache 10940494
Core_0_L2C_wq_full 0

Core_0_L2C_pq_access 41278660
Core_0_L2C_pq_forward 0
Core_0_L2C_pq_merged 2914130
Core_0_L2C_pq_to_cache 38364509
Core_0_L2C_pq_full 0

Core_0_L2C_acc_epochs 2733130
Core_0_L2C_acc_level_0 1662267
Core_0_L2C_acc_level_1 149905
Core_0_L2C_acc_level_2 134156
Core_0_L2C_acc_level_3 79114
Core_0_L2C_acc_level_4 49814
Core_0_L2C_acc_level_5 123902
Core_0_L2C_acc_level_6 61249
Core_0_L2C_acc_level_7 56390
Core_0_L2C_acc_level_8 62270
Core_0_L2C_acc_level_9 354063

Core_0_LLC_total_access 49366020
Core_0_LLC_total_hit 30689875
Core_0_LLC_total_miss 18676145
Core_0_LLC_loads 15464030
Core_0_LLC_load_hit 7314872
Core_0_LLC_load_miss 8149158
Core_0_LLC_RFOs 3436746
Core_0_LLC_RFO_hit 863298
Core_0_LLC_RFO_miss 2573448
Core_0_LLC_prefetches 22373336
Core_0_LLC_prefetch_hit 15904191
Core_0_LLC_prefetch_miss 6469145
Core_0_LLC_writebacks 8091908
Core_0_LLC_writeback_hit 6607514
Core_0_LLC_writeback_miss 1484394
Core_0_LLC_prefetch_requested 0
Core_0_LLC_prefetch_dropped 0
Core_0_LLC_prefetch_issued 0
Core_0_LLC_prefetch_filled 8288383
Core_0_LLC_prefetch_useful 4041072
Core_0_LLC_prefetch_useless 4239900
Core_0_LLC_prefetch_late 1386888
Core_0_LLC_average_miss_latency 868.55257

Core_0_LLC_rq_access 18900908
Core_0_LLC_rq_forward 0
Core_0_LLC_rq_merged 0
Core_0_LLC_rq_to_cache 18900776
Core_0_LLC_rq_full 0

Core_0_LLC_wq_access 8091908
Core_0_LLC_wq_forward 133
Core_0_LLC_wq_merged 0
Core_0_LLC_wq_to_cache 8091908
Core_0_LLC_wq_full 0

Core_0_LLC_pq_access 35299940
Core_0_LLC_pq_forward 0
Core_0_LLC_pq_merged 948804
Core_0_LLC_pq_to_cache 34351135
Core_0_LLC_pq_full 0

Core_0_LLC_acc_epochs 2782589
Core_0_LLC_acc_level_0 906487
Core_0_LLC_acc_level_1 322498
Core_0_LLC_acc_level_2 324013
Core_0_LLC_acc_level_3 247665
Core_0_LLC_acc_level_4 166884
Core_0_LLC_acc_level_5 229698
Core_0_LLC_acc_level_6 144547
Core_0_LLC_acc_level_7 105294
Core_0_LLC_acc_level_8 75217
Core_0_LLC_acc_level_9 260286

Core_0_major_page_fault 0
Core_0_minor_page_fault 12989

spp.pref.total 41278758
spp.pref.at_L2 4088816
spp.pref.at_LLC 37189942

spp.depth.max 11
spp.depth.min 0
spp.depth.avg 1

spp.breadth.max 2
spp.breadth.min 0
spp.breadth.avg 0

delta_1 29518251
delta_-1 11494173
delta_2 537101
delta_-2 110514
delta_3 63529
delta_-3 53425
delta_-4 21517
delta_10 15125
delta_14 9584
delta_4 3341
delta_7 3339
delta_6 3031
delta_8 2924
delta_11 2191
delta_9 1865
delta_15 1541
delta_5 679
delta_-5 497
delta_-33 474
delta_-12 219
delta_33 204
delta_-20 183
delta_17 47
delta_-6 37
delta_13 17
delta_-7 9
delta_-34 9
delta_16 7
delta_-11 7
delta_-26 4
delta_12 2
delta_34 2
delta_-14 1

depth_1_delta_1 8560284
depth_1_delta_-1 3719744
depth_1_delta_2 410516
depth_1_delta_-2 101752
depth_1_delta_-3 47005
depth_1_delta_3 41047
depth_1_delta_-4 20284
depth_1_delta_10 10989
depth_1_delta_14 5317
depth_1_delta_4 3341
depth_1_delta_6 2149
depth_1_delta_8 2079
depth_1_delta_7 1969
depth_1_delta_9 1515
depth_1_delta_15 1478
depth_1_delta_11 1068
depth_1_delta_5 626
depth_1_delta_-5 497
depth_1_delta_-33 474
depth_1_delta_-12 219
depth_1_delta_33 204
depth_1_delta_-20 183
depth_1_delta_17 47
depth_1_delta_-6 37
depth_1_delta_13 17
depth_1_delta_-7 9
depth_1_delta_-34 9
depth_1_delta_16 7
depth_1_delta_-11 7
depth_1_delta_-26 4
depth_1_delta_12 2
depth_1_delta_34 2
depth_1_delta_-14 1
depth_2_delta_1 5817790
depth_2_delta_-1 2857098
depth_2_delta_2 95611
depth_2_delta_3 18276
depth_2_delta_-2 6925
depth_2_delta_-3 4753
depth_2_delta_14 3343
depth_2_delta_10 3087
depth_2_delta_-4 1233
depth_2_delta_7 994
depth_2_delta_11 747
depth_2_delta_6 687
depth_2_delta_8 551
depth_2_delta_9 343
depth_2_delta_15 63
depth_2_delta_5 53
depth_3_delta_1 4225447
depth_3_delta_-1 2058417
depth_3_delta_2 25423
depth_3_delta_3 4010
depth_3_delta_-2 969
depth_3_delta_10 795
depth_3_delta_-3 662
depth_3_delta_14 655
depth_3_delta_7 282
depth_3_delta_11 248
depth_3_delta_8 217
depth_3_delta_6 148
depth_3_delta_9 7
depth_4_delta_1 3259214
depth_4_delta_-1 1487138
depth_4_delta_2 5034
depth_4_delta_-3 430
depth_4_delta_-2 370
depth_4_delta_14 240
depth_4_delta_10 217
depth_4_delta_3 193
depth_4_delta_11 105
depth_4_delta_7 90
depth_4_delta_8 61
depth_4_delta_6 43
depth_5_delta_1 2477933
depth_5_delta_-1 785355
depth_5_delta_2 517
depth_5_delta_-3 270
depth_5_delta_-2 234
depth_5_delta_10 37
depth_5_delta_14 29
depth_5_delta_8 16
depth_5_delta_11 16
depth_5_delta_7 4
depth_5_delta_6 4
depth_5_delta_3 3
depth_6_delta_1 1906616
depth_6_delta_-1 337642
depth_6_delta_-3 168
depth_6_delta_-2 146
depth_6_delta_11 5
depth_7_delta_1 1429523
depth_7_delta_-1 129528
depth_7_delta_-3 84
depth_7_delta_-2 78
depth_7_delta_11 2
depth_8_delta_1 1083832
depth_8_delta_-1 72051
depth_8_delta_-3 44
depth_8_delta_-2 32
depth_9_delta_1 584163
depth_9_delta_-1 37613
depth_9_delta_-3 9
depth_9_delta_-2 7
depth_10_delta_1 171786
depth_10_delta_-1 9573
depth_10_delta_-2 1
depth_11_delta_1 1663
depth_11_delta_-1 14

Channel_0_RQ_row_buffer_hit 4500772
Channel_0_RQ_row_buffer_miss 12685467
Channel_0_WQ_row_buffer_hit 1448867
Channel_0_WQ_row_buffer_miss 3713273
Channel_0_WQ_full 294
Channel_0_dbus_congested 20010370

avg_congested_cycle 99

DRAM_bw_pochs 11130354
DRAM_bw_level_0 2510531
DRAM_bw_level_1 2130345
DRAM_bw_level_2 0
DRAM_bw_level_3 6489478
