*************************************************
   ChampSim Multicore Out-of-Order Simulator
   Last compiled: Dec 11 2024 17:59:53
*************************************************
parsing config file: /home/functionmain/桌面/Pythia/config/mlop.ini

trace_0 /home/functionmain/桌面/Pythia/traces/450.soplex-247B.champsimtrace.xz
adding L2C_PREFETCHER: MLOP
Initialize SHIP state
warmup_instructions 100000000
simulation_instructions 500000000
champsim_seed 223
measure_ipc 0
measure_ipc_epoch 1000
measure_dram_bw 1
measure_dram_bw_epoch 256
measure_cache_acc 1
measure_cache_acc_epoch 1024
l1d_perfect 0
l2c_perfect 0
llc_perfect 0
l1d_semi_perfect 0
l2c_semi_perfect 0
llc_semi_perfect 0
semi_perfect_cache_page_buffer_size 64

num_cpus 1
cpu_freq 4000
dram_io_freq 600
page_size 4096
block_size 64
max_read_per_cycle 8
max_fill_per_cycle 1
dram_channels 1
log2_dram_channels 0
dram_ranks 1
dram_banks 8
dram_rows 65536
dram_columns 128
dram_row_size 8
dram_size 4096
dram_pages 1048576

fetch_width 6
decode_width 6
exec_width 4
lq_width 2
sq_width 2
retire_width 4
scheduler_size 128
branch_mispredict_penalty 20
rob_size 256
lq_size 72
sq_size 56
num_instr_destinations_sparc 4
num_instr_destinations 2
num_instr_sources 4

itlb_set 16
itlb_way 8
itlb_rq_size 16
itlb_wq_size 16
itlb_pq_size 0
itlb_mshr_size 8
itlb_latency 1

dtlb_set 16
dtlb_way 4
dtlb_rq_size 16
dtlb_wq_size 16
dtlb_pq_size 0
dtlb_mshr_size 8
dtlb_latency 1

stlb_set 128
stlb_way 12
stlb_rq_size 32
stlb_wq_size 32
stlb_pq_size 0
stlb_mshr_size 16
stlb_latency 8

l1i_size 32
l1i_set 64
l1i_way 8
l1i_rq_size 64
l1i_wq_size 64
l1i_pq_size 8
l1i_mshr_size 8
l1i_latency 1

l1d_size 32
l1d_set 64
l1d_way 8
l1d_rq_size 64
l1d_wq_size 64
l1d_pq_size 8
l1d_mshr_size 16
l1d_latency 4

l2c_size 256
l2c_set 512
l2c_way 8
l2c_rq_size 32
l2c_wq_size 32
l2c_pq_size 32
l2c_mshr_size 32
l2c_latency 10

llc_size 2048
llc_set 2048
llc_way 16
llc_rq_size 32
llc_wq_size 32
llc_pq_size 32
llc_mshr_size 64
llc_latency 20

dram_channel_width 8
dram_wq_size 64
dram_rq_size 64
tRP 15
tRCD 15
tCAS 12.5
dram_dbus_turn_around_time 30
dram_write_high_wm 56
dram_write_low_wm 48
min_dram_writes_per_switch 16
dram_mtps 600
dram_dbus_return_time 53

mlop_pref_degree 16
mlop_num_updates 500
mlop_l1d_thresh 2
mlop_l2c_thresh 0.75
mlop_llc_thresh 0.3
mlop_debug_level 0
mlop_blocks_in_cache 4096
mlop_blocks_in_zone 64
mlop_amt_size 2048
mlop_PF_DEGREE 16
mlop_NUM_UPDATES 500
mlop_L1D_THRESH 1000
mlop_L2C_THRESH 375
mlop_LLC_THRESH 150
mlop_ORIGIN 63
mlop_MAX_OFFSET 63
mlop_MIN_OFFSET -63
mlop_ORIGIN 63
mlop_NUM_OFFSETS 127


Heartbeat CPU  0 instructions:    1000002 cycles:     756923 heartbeat IPC: 1.32114 cumulative IPC: 1.32114 (Simulation time: 0 hr 0 min 2 sec) 
Heartbeat CPU  0 instructions:    2000001 cycles:    1399542 heartbeat IPC: 1.55613 cumulative IPC: 1.42904 (Simulation time: 0 hr 0 min 3 sec) 
Heartbeat CPU  0 instructions:    3000001 cycles:    2124787 heartbeat IPC: 1.37884 cumulative IPC: 1.41191 (Simulation time: 0 hr 0 min 5 sec) 
Heartbeat CPU  0 instructions:    4000000 cycles:    2666239 heartbeat IPC: 1.84688 cumulative IPC: 1.50024 (Simulation time: 0 hr 0 min 6 sec) 
Heartbeat CPU  0 instructions:    5000000 cycles:    3572970 heartbeat IPC: 1.10286 cumulative IPC: 1.39940 (Simulation time: 0 hr 0 min 8 sec) 
Heartbeat CPU  0 instructions:    6000001 cycles:    4464380 heartbeat IPC: 1.12182 cumulative IPC: 1.34397 (Simulation time: 0 hr 0 min 10 sec) 
Heartbeat CPU  0 instructions:    7000000 cycles:    5264130 heartbeat IPC: 1.25039 cumulative IPC: 1.32975 (Simulation time: 0 hr 0 min 11 sec) 
Heartbeat CPU  0 instructions:    8000000 cycles:    5956307 heartbeat IPC: 1.44472 cumulative IPC: 1.34311 (Simulation time: 0 hr 0 min 13 sec) 
Heartbeat CPU  0 instructions:    9000001 cycles:    6571438 heartbeat IPC: 1.62567 cumulative IPC: 1.36956 (Simulation time: 0 hr 0 min 15 sec) 
Heartbeat CPU  0 instructions:   10000000 cycles:    7112335 heartbeat IPC: 1.84878 cumulative IPC: 1.40601 (Simulation time: 0 hr 0 min 16 sec) 
Heartbeat CPU  0 instructions:   11000001 cycles:    7706070 heartbeat IPC: 1.68425 cumulative IPC: 1.42745 (Simulation time: 0 hr 0 min 17 sec) 
Heartbeat CPU  0 instructions:   12000000 cycles:    8381784 heartbeat IPC: 1.47991 cumulative IPC: 1.43168 (Simulation time: 0 hr 0 min 19 sec) 
Heartbeat CPU  0 instructions:   13000000 cycles:    9266220 heartbeat IPC: 1.13066 cumulative IPC: 1.40295 (Simulation time: 0 hr 0 min 20 sec) 
Heartbeat CPU  0 instructions:   14000002 cycles:   10017458 heartbeat IPC: 1.33114 cumulative IPC: 1.39756 (Simulation time: 0 hr 0 min 21 sec) 
Heartbeat CPU  0 instructions:   15000002 cycles:   10620765 heartbeat IPC: 1.65753 cumulative IPC: 1.41233 (Simulation time: 0 hr 0 min 22 sec) 
Heartbeat CPU  0 instructions:   16000000 cycles:   11148289 heartbeat IPC: 1.89564 cumulative IPC: 1.43520 (Simulation time: 0 hr 0 min 24 sec) 
Heartbeat CPU  0 instructions:   17000000 cycles:   11959123 heartbeat IPC: 1.23330 cumulative IPC: 1.42151 (Simulation time: 0 hr 0 min 26 sec) 
Heartbeat CPU  0 instructions:   18000001 cycles:   12564425 heartbeat IPC: 1.65207 cumulative IPC: 1.43262 (Simulation time: 0 hr 0 min 27 sec) 
Heartbeat CPU  0 instructions:   19000001 cycles:   13097690 heartbeat IPC: 1.87524 cumulative IPC: 1.45064 (Simulation time: 0 hr 0 min 29 sec) 
Heartbeat CPU  0 instructions:   20000000 cycles:   13694901 heartbeat IPC: 1.67445 cumulative IPC: 1.46040 (Simulation time: 0 hr 0 min 30 sec) 
Heartbeat CPU  0 instructions:   21000001 cycles:   14351500 heartbeat IPC: 1.52300 cumulative IPC: 1.46326 (Simulation time: 0 hr 0 min 32 sec) 
Heartbeat CPU  0 instructions:   22000003 cycles:   15233715 heartbeat IPC: 1.13351 cumulative IPC: 1.44417 (Simulation time: 0 hr 0 min 33 sec) 
Heartbeat CPU  0 instructions:   23000001 cycles:   16003072 heartbeat IPC: 1.29978 cumulative IPC: 1.43722 (Simulation time: 0 hr 0 min 34 sec) 
Heartbeat CPU  0 instructions:   24000000 cycles:   16602988 heartbeat IPC: 1.66690 cumulative IPC: 1.44552 (Simulation time: 0 hr 0 min 35 sec) 
Heartbeat CPU  0 instructions:   25000000 cycles:   17145169 heartbeat IPC: 1.84440 cumulative IPC: 1.45814 (Simulation time: 0 hr 0 min 37 sec) 
Heartbeat CPU  0 instructions:   26000001 cycles:   17944369 heartbeat IPC: 1.25125 cumulative IPC: 1.44892 (Simulation time: 0 hr 0 min 38 sec) 
Heartbeat CPU  0 instructions:   27000003 cycles:   18518790 heartbeat IPC: 1.74089 cumulative IPC: 1.45798 (Simulation time: 0 hr 0 min 40 sec) 
Heartbeat CPU  0 instructions:   28000000 cycles:   19068988 heartbeat IPC: 1.81752 cumulative IPC: 1.46835 (Simulation time: 0 hr 0 min 41 sec) 
Heartbeat CPU  0 instructions:   29000002 cycles:   19624954 heartbeat IPC: 1.79867 cumulative IPC: 1.47771 (Simulation time: 0 hr 0 min 43 sec) 
Heartbeat CPU  0 instructions:   30000001 cycles:   20210122 heartbeat IPC: 1.70891 cumulative IPC: 1.48440 (Simulation time: 0 hr 0 min 45 sec) 
Heartbeat CPU  0 instructions:   31000002 cycles:   21082037 heartbeat IPC: 1.14690 cumulative IPC: 1.47045 (Simulation time: 0 hr 0 min 46 sec) 
Heartbeat CPU  0 instructions:   32000000 cycles:   21906035 heartbeat IPC: 1.21359 cumulative IPC: 1.46078 (Simulation time: 0 hr 0 min 47 sec) 
Heartbeat CPU  0 instructions:   33000000 cycles:   22505434 heartbeat IPC: 1.66834 cumulative IPC: 1.46631 (Simulation time: 0 hr 0 min 48 sec) 
Heartbeat CPU  0 instructions:   34000000 cycles:   23122987 heartbeat IPC: 1.61929 cumulative IPC: 1.47040 (Simulation time: 0 hr 0 min 49 sec) 
Heartbeat CPU  0 instructions:   35000000 cycles:   23847530 heartbeat IPC: 1.38018 cumulative IPC: 1.46766 (Simulation time: 0 hr 0 min 51 sec) 
Heartbeat CPU  0 instructions:   36000000 cycles:   24452306 heartbeat IPC: 1.65350 cumulative IPC: 1.47225 (Simulation time: 0 hr 0 min 53 sec) 
Heartbeat CPU  0 instructions:   37000001 cycles:   24985358 heartbeat IPC: 1.87599 cumulative IPC: 1.48087 (Simulation time: 0 hr 0 min 54 sec) 
Heartbeat CPU  0 instructions:   38000002 cycles:   25551803 heartbeat IPC: 1.76540 cumulative IPC: 1.48717 (Simulation time: 0 hr 0 min 56 sec) 
Heartbeat CPU  0 instructions:   39000000 cycles:   26131506 heartbeat IPC: 1.72502 cumulative IPC: 1.49245 (Simulation time: 0 hr 0 min 57 sec) 
Heartbeat CPU  0 instructions:   40000000 cycles:   26908422 heartbeat IPC: 1.28714 cumulative IPC: 1.48652 (Simulation time: 0 hr 0 min 59 sec) 
Heartbeat CPU  0 instructions:   41000001 cycles:   27778049 heartbeat IPC: 1.14992 cumulative IPC: 1.47599 (Simulation time: 0 hr 1 min 0 sec) 
Heartbeat CPU  0 instructions:   42000001 cycles:   28431534 heartbeat IPC: 1.53026 cumulative IPC: 1.47723 (Simulation time: 0 hr 1 min 1 sec) 
Heartbeat CPU  0 instructions:   43000000 cycles:   29071521 heartbeat IPC: 1.56253 cumulative IPC: 1.47911 (Simulation time: 0 hr 1 min 2 sec) 
Heartbeat CPU  0 instructions:   44000000 cycles:   29696827 heartbeat IPC: 1.59922 cumulative IPC: 1.48164 (Simulation time: 0 hr 1 min 4 sec) 
Heartbeat CPU  0 instructions:   45000000 cycles:   30426425 heartbeat IPC: 1.37062 cumulative IPC: 1.47898 (Simulation time: 0 hr 1 min 6 sec) 
Heartbeat CPU  0 instructions:   46000001 cycles:   30961528 heartbeat IPC: 1.86880 cumulative IPC: 1.48571 (Simulation time: 0 hr 1 min 7 sec) 
Heartbeat CPU  0 instructions:   47000000 cycles:   31518909 heartbeat IPC: 1.79410 cumulative IPC: 1.49117 (Simulation time: 0 hr 1 min 9 sec) 
Heartbeat CPU  0 instructions:   48000000 cycles:   32104620 heartbeat IPC: 1.70733 cumulative IPC: 1.49511 (Simulation time: 0 hr 1 min 10 sec) 
Heartbeat CPU  0 instructions:   49000001 cycles:   32844592 heartbeat IPC: 1.35140 cumulative IPC: 1.49187 (Simulation time: 0 hr 1 min 12 sec) 
Heartbeat CPU  0 instructions:   50000001 cycles:   33715915 heartbeat IPC: 1.14768 cumulative IPC: 1.48298 (Simulation time: 0 hr 1 min 13 sec) 
Heartbeat CPU  0 instructions:   51000003 cycles:   34412233 heartbeat IPC: 1.43613 cumulative IPC: 1.48203 (Simulation time: 0 hr 1 min 14 sec) 
Heartbeat CPU  0 instructions:   52000000 cycles:   35020035 heartbeat IPC: 1.64527 cumulative IPC: 1.48486 (Simulation time: 0 hr 1 min 15 sec) 
Heartbeat CPU  0 instructions:   53000000 cycles:   35598724 heartbeat IPC: 1.72804 cumulative IPC: 1.48882 (Simulation time: 0 hr 1 min 17 sec) 
Heartbeat CPU  0 instructions:   54000002 cycles:   36363051 heartbeat IPC: 1.30834 cumulative IPC: 1.48502 (Simulation time: 0 hr 1 min 18 sec) 
Heartbeat CPU  0 instructions:   55000001 cycles:   36935053 heartbeat IPC: 1.74824 cumulative IPC: 1.48910 (Simulation time: 0 hr 1 min 20 sec) 
Heartbeat CPU  0 instructions:   56000000 cycles:   37485768 heartbeat IPC: 1.81582 cumulative IPC: 1.49390 (Simulation time: 0 hr 1 min 21 sec) 
Heartbeat CPU  0 instructions:   57000002 cycles:   38073604 heartbeat IPC: 1.70116 cumulative IPC: 1.49710 (Simulation time: 0 hr 1 min 23 sec) 
Heartbeat CPU  0 instructions:   58000001 cycles:   38806656 heartbeat IPC: 1.36416 cumulative IPC: 1.49459 (Simulation time: 0 hr 1 min 24 sec) 
Heartbeat CPU  0 instructions:   59000001 cycles:   39680159 heartbeat IPC: 1.14482 cumulative IPC: 1.48689 (Simulation time: 0 hr 1 min 25 sec) 
Heartbeat CPU  0 instructions:   60000000 cycles:   40401981 heartbeat IPC: 1.38538 cumulative IPC: 1.48508 (Simulation time: 0 hr 1 min 26 sec) 
Heartbeat CPU  0 instructions:   61000003 cycles:   41017340 heartbeat IPC: 1.62507 cumulative IPC: 1.48718 (Simulation time: 0 hr 1 min 28 sec) 
Heartbeat CPU  0 instructions:   62000001 cycles:   41586253 heartbeat IPC: 1.75773 cumulative IPC: 1.49088 (Simulation time: 0 hr 1 min 29 sec) 
Heartbeat CPU  0 instructions:   63000000 cycles:   42377692 heartbeat IPC: 1.26352 cumulative IPC: 1.48663 (Simulation time: 0 hr 1 min 31 sec) 
Heartbeat CPU  0 instructions:   64000000 cycles:   42967359 heartbeat IPC: 1.69587 cumulative IPC: 1.48950 (Simulation time: 0 hr 1 min 33 sec) 
Heartbeat CPU  0 instructions:   65000003 cycles:   43512650 heartbeat IPC: 1.83389 cumulative IPC: 1.49382 (Simulation time: 0 hr 1 min 34 sec) 
Heartbeat CPU  0 instructions:   66000001 cycles:   44101239 heartbeat IPC: 1.69897 cumulative IPC: 1.49656 (Simulation time: 0 hr 1 min 36 sec) 
Heartbeat CPU  0 instructions:   67000000 cycles:   44788453 heartbeat IPC: 1.45515 cumulative IPC: 1.49592 (Simulation time: 0 hr 1 min 37 sec) 
Heartbeat CPU  0 instructions:   68000000 cycles:   45667619 heartbeat IPC: 1.13744 cumulative IPC: 1.48902 (Simulation time: 0 hr 1 min 38 sec) 
Heartbeat CPU  0 instructions:   69000001 cycles:   46421971 heartbeat IPC: 1.32564 cumulative IPC: 1.48637 (Simulation time: 0 hr 1 min 39 sec) 
Heartbeat CPU  0 instructions:   70000000 cycles:   47038125 heartbeat IPC: 1.62297 cumulative IPC: 1.48815 (Simulation time: 0 hr 1 min 40 sec) 
Heartbeat CPU  0 instructions:   71000002 cycles:   47570948 heartbeat IPC: 1.87680 cumulative IPC: 1.49251 (Simulation time: 0 hr 1 min 42 sec) 
Heartbeat CPU  0 instructions:   72000000 cycles:   48376892 heartbeat IPC: 1.24078 cumulative IPC: 1.48831 (Simulation time: 0 hr 1 min 44 sec) 
Heartbeat CPU  0 instructions:   73000001 cycles:   48975258 heartbeat IPC: 1.67122 cumulative IPC: 1.49055 (Simulation time: 0 hr 1 min 46 sec) 
Heartbeat CPU  0 instructions:   74000002 cycles:   49513016 heartbeat IPC: 1.85957 cumulative IPC: 1.49456 (Simulation time: 0 hr 1 min 47 sec) 
Heartbeat CPU  0 instructions:   75000003 cycles:   50110155 heartbeat IPC: 1.67465 cumulative IPC: 1.49670 (Simulation time: 0 hr 1 min 48 sec) 
Heartbeat CPU  0 instructions:   76000000 cycles:   50761915 heartbeat IPC: 1.53430 cumulative IPC: 1.49719 (Simulation time: 0 hr 1 min 50 sec) 
Heartbeat CPU  0 instructions:   77000001 cycles:   51638133 heartbeat IPC: 1.14127 cumulative IPC: 1.49115 (Simulation time: 0 hr 1 min 51 sec) 
Heartbeat CPU  0 instructions:   78000001 cycles:   52414591 heartbeat IPC: 1.28790 cumulative IPC: 1.48814 (Simulation time: 0 hr 1 min 52 sec) 
Heartbeat CPU  0 instructions:   79000003 cycles:   53029603 heartbeat IPC: 1.62599 cumulative IPC: 1.48973 (Simulation time: 0 hr 1 min 53 sec) 
Heartbeat CPU  0 instructions:   80000000 cycles:   53595722 heartbeat IPC: 1.76641 cumulative IPC: 1.49266 (Simulation time: 0 hr 1 min 55 sec) 
Heartbeat CPU  0 instructions:   81000001 cycles:   54383645 heartbeat IPC: 1.26916 cumulative IPC: 1.48942 (Simulation time: 0 hr 1 min 56 sec) 
Heartbeat CPU  0 instructions:   82000002 cycles:   54995456 heartbeat IPC: 1.63449 cumulative IPC: 1.49103 (Simulation time: 0 hr 1 min 58 sec) 
Heartbeat CPU  0 instructions:   83000003 cycles:   55549905 heartbeat IPC: 1.80359 cumulative IPC: 1.49415 (Simulation time: 0 hr 2 min 0 sec) 
Heartbeat CPU  0 instructions:   84000000 cycles:   56104104 heartbeat IPC: 1.80440 cumulative IPC: 1.49722 (Simulation time: 0 hr 2 min 1 sec) 
Heartbeat CPU  0 instructions:   85000001 cycles:   56688865 heartbeat IPC: 1.71010 cumulative IPC: 1.49941 (Simulation time: 0 hr 2 min 3 sec) 
Heartbeat CPU  0 instructions:   86000000 cycles:   57564274 heartbeat IPC: 1.14232 cumulative IPC: 1.49398 (Simulation time: 0 hr 2 min 4 sec) 
Heartbeat CPU  0 instructions:   87000000 cycles:   58394302 heartbeat IPC: 1.20478 cumulative IPC: 1.48987 (Simulation time: 0 hr 2 min 5 sec) 
Heartbeat CPU  0 instructions:   88000000 cycles:   59013772 heartbeat IPC: 1.61428 cumulative IPC: 1.49118 (Simulation time: 0 hr 2 min 6 sec) 
Heartbeat CPU  0 instructions:   89000003 cycles:   59653563 heartbeat IPC: 1.56302 cumulative IPC: 1.49195 (Simulation time: 0 hr 2 min 8 sec) 
Heartbeat CPU  0 instructions:   90000003 cycles:   60347985 heartbeat IPC: 1.44005 cumulative IPC: 1.49135 (Simulation time: 0 hr 2 min 9 sec) 
Heartbeat CPU  0 instructions:   91000001 cycles:   61022084 heartbeat IPC: 1.48346 cumulative IPC: 1.49126 (Simulation time: 0 hr 2 min 11 sec) 
Heartbeat CPU  0 instructions:   92000000 cycles:   61587930 heartbeat IPC: 1.76726 cumulative IPC: 1.49380 (Simulation time: 0 hr 2 min 12 sec) 
Heartbeat CPU  0 instructions:   93000003 cycles:   62133596 heartbeat IPC: 1.83263 cumulative IPC: 1.49677 (Simulation time: 0 hr 2 min 14 sec) 
Heartbeat CPU  0 instructions:   94000003 cycles:   62720394 heartbeat IPC: 1.70416 cumulative IPC: 1.49872 (Simulation time: 0 hr 2 min 16 sec) 
Heartbeat CPU  0 instructions:   95000003 cycles:   63559200 heartbeat IPC: 1.19217 cumulative IPC: 1.49467 (Simulation time: 0 hr 2 min 17 sec) 
Heartbeat CPU  0 instructions:   96000000 cycles:   64410096 heartbeat IPC: 1.17523 cumulative IPC: 1.49045 (Simulation time: 0 hr 2 min 18 sec) 
Heartbeat CPU  0 instructions:   97000002 cycles:   65046492 heartbeat IPC: 1.57135 cumulative IPC: 1.49124 (Simulation time: 0 hr 2 min 19 sec) 
Heartbeat CPU  0 instructions:   98000003 cycles:   65692872 heartbeat IPC: 1.54708 cumulative IPC: 1.49179 (Simulation time: 0 hr 2 min 20 sec) 
Heartbeat CPU  0 instructions:   99000002 cycles:   66345524 heartbeat IPC: 1.53221 cumulative IPC: 1.49219 (Simulation time: 0 hr 2 min 22 sec) 
Heartbeat CPU  0 instructions:  100000000 cycles:   66930386 heartbeat IPC: 1.70980 cumulative IPC: 1.49409 (Simulation time: 0 hr 2 min 24 sec) 

Warmup complete CPU  0 instructions:  100000002 cycles:   66930388 (Simulation time: 0 hr 2 min 24 sec) 

Heartbeat CPU  0 instructions:  101000001 cycles:   75826247 heartbeat IPC: 0.11241 cumulative IPC: 0.11241 (Simulation time: 0 hr 2 min 28 sec) 
Heartbeat CPU  0 instructions:  102000001 cycles:   81984068 heartbeat IPC: 0.16240 cumulative IPC: 0.13286 (Simulation time: 0 hr 2 min 32 sec) 
Heartbeat CPU  0 instructions:  103000001 cycles:   88212526 heartbeat IPC: 0.16055 cumulative IPC: 0.14096 (Simulation time: 0 hr 2 min 37 sec) 
Heartbeat CPU  0 instructions:  104000000 cycles:   93334113 heartbeat IPC: 0.19525 cumulative IPC: 0.15149 (Simulation time: 0 hr 2 min 41 sec) 
Heartbeat CPU  0 instructions:  105000002 cycles:   98439102 heartbeat IPC: 0.19589 cumulative IPC: 0.15869 (Simulation time: 0 hr 2 min 45 sec) 
Heartbeat CPU  0 instructions:  106000001 cycles:  102746607 heartbeat IPC: 0.23215 cumulative IPC: 0.16752 (Simulation time: 0 hr 2 min 49 sec) 
Heartbeat CPU  0 instructions:  107000003 cycles:  107520989 heartbeat IPC: 0.20945 cumulative IPC: 0.17245 (Simulation time: 0 hr 2 min 52 sec) 
Heartbeat CPU  0 instructions:  108000000 cycles:  111443360 heartbeat IPC: 0.25495 cumulative IPC: 0.17972 (Simulation time: 0 hr 2 min 54 sec) 
Heartbeat CPU  0 instructions:  109000000 cycles:  115279201 heartbeat IPC: 0.26070 cumulative IPC: 0.18615 (Simulation time: 0 hr 2 min 57 sec) 
Heartbeat CPU  0 instructions:  110000001 cycles:  117924484 heartbeat IPC: 0.37803 cumulative IPC: 0.19610 (Simulation time: 0 hr 2 min 59 sec) 
Heartbeat CPU  0 instructions:  111000003 cycles:  120875370 heartbeat IPC: 0.33888 cumulative IPC: 0.20391 (Simulation time: 0 hr 3 min 2 sec) 
Heartbeat CPU  0 instructions:  112000000 cycles:  123284912 heartbeat IPC: 0.41502 cumulative IPC: 0.21294 (Simulation time: 0 hr 3 min 5 sec) 
Heartbeat CPU  0 instructions:  113000002 cycles:  125630566 heartbeat IPC: 0.42632 cumulative IPC: 0.22146 (Simulation time: 0 hr 3 min 7 sec) 
Heartbeat CPU  0 instructions:  114000000 cycles:  128002304 heartbeat IPC: 0.42163 cumulative IPC: 0.22924 (Simulation time: 0 hr 3 min 10 sec) 
Heartbeat CPU  0 instructions:  115000000 cycles:  131421782 heartbeat IPC: 0.29244 cumulative IPC: 0.23259 (Simulation time: 0 hr 3 min 13 sec) 
Heartbeat CPU  0 instructions:  116000000 cycles:  135528913 heartbeat IPC: 0.24348 cumulative IPC: 0.23324 (Simulation time: 0 hr 3 min 16 sec) 
Heartbeat CPU  0 instructions:  117000000 cycles:  139705447 heartbeat IPC: 0.23943 cumulative IPC: 0.23360 (Simulation time: 0 hr 3 min 19 sec) 
Heartbeat CPU  0 instructions:  118000000 cycles:  142030762 heartbeat IPC: 0.43005 cumulative IPC: 0.23968 (Simulation time: 0 hr 3 min 22 sec) 
Heartbeat CPU  0 instructions:  119000000 cycles:  145780430 heartbeat IPC: 0.26669 cumulative IPC: 0.24096 (Simulation time: 0 hr 3 min 25 sec) 
Heartbeat CPU  0 instructions:  120000000 cycles:  148402167 heartbeat IPC: 0.38143 cumulative IPC: 0.24548 (Simulation time: 0 hr 3 min 28 sec) 
Heartbeat CPU  0 instructions:  121000001 cycles:  155716620 heartbeat IPC: 0.13672 cumulative IPC: 0.23652 (Simulation time: 0 hr 3 min 33 sec) 
Heartbeat CPU  0 instructions:  122000001 cycles:  161801595 heartbeat IPC: 0.16434 cumulative IPC: 0.23189 (Simulation time: 0 hr 3 min 37 sec) 
Heartbeat CPU  0 instructions:  123000000 cycles:  164173464 heartbeat IPC: 0.42161 cumulative IPC: 0.23652 (Simulation time: 0 hr 3 min 39 sec) 
Heartbeat CPU  0 instructions:  124000000 cycles:  166059613 heartbeat IPC: 0.53018 cumulative IPC: 0.24211 (Simulation time: 0 hr 3 min 40 sec) 
Heartbeat CPU  0 instructions:  125000000 cycles:  172340616 heartbeat IPC: 0.15921 cumulative IPC: 0.23717 (Simulation time: 0 hr 3 min 44 sec) 
Heartbeat CPU  0 instructions:  126000002 cycles:  176446863 heartbeat IPC: 0.24353 cumulative IPC: 0.23741 (Simulation time: 0 hr 3 min 47 sec) 
Heartbeat CPU  0 instructions:  127000002 cycles:  181059426 heartbeat IPC: 0.21680 cumulative IPC: 0.23657 (Simulation time: 0 hr 3 min 51 sec) 
Heartbeat CPU  0 instructions:  128000000 cycles:  184101624 heartbeat IPC: 0.32871 cumulative IPC: 0.23897 (Simulation time: 0 hr 3 min 53 sec) 
Heartbeat CPU  0 instructions:  129000003 cycles:  187467420 heartbeat IPC: 0.29711 cumulative IPC: 0.24059 (Simulation time: 0 hr 3 min 56 sec) 
Heartbeat CPU  0 instructions:  130000001 cycles:  196753287 heartbeat IPC: 0.10769 cumulative IPC: 0.23108 (Simulation time: 0 hr 4 min 3 sec) 
Heartbeat CPU  0 instructions:  131000000 cycles:  199376443 heartbeat IPC: 0.38122 cumulative IPC: 0.23406 (Simulation time: 0 hr 4 min 4 sec) 
Heartbeat CPU  0 instructions:  132000000 cycles:  201636964 heartbeat IPC: 0.44238 cumulative IPC: 0.23755 (Simulation time: 0 hr 4 min 6 sec) 
Heartbeat CPU  0 instructions:  133000000 cycles:  204695401 heartbeat IPC: 0.32696 cumulative IPC: 0.23954 (Simulation time: 0 hr 4 min 8 sec) 
Heartbeat CPU  0 instructions:  134000000 cycles:  211031070 heartbeat IPC: 0.15784 cumulative IPC: 0.23595 (Simulation time: 0 hr 4 min 12 sec) 
Heartbeat CPU  0 instructions:  135000002 cycles:  215069158 heartbeat IPC: 0.24764 cumulative IPC: 0.23626 (Simulation time: 0 hr 4 min 15 sec) 
Heartbeat CPU  0 instructions:  136000000 cycles:  218788506 heartbeat IPC: 0.26886 cumulative IPC: 0.23706 (Simulation time: 0 hr 4 min 19 sec) 
Heartbeat CPU  0 instructions:  137000000 cycles:  221642947 heartbeat IPC: 0.35033 cumulative IPC: 0.23915 (Simulation time: 0 hr 4 min 21 sec) 
Heartbeat CPU  0 instructions:  138000001 cycles:  226382715 heartbeat IPC: 0.21098 cumulative IPC: 0.23832 (Simulation time: 0 hr 4 min 25 sec) 
Heartbeat CPU  0 instructions:  139000000 cycles:  234528626 heartbeat IPC: 0.12276 cumulative IPC: 0.23270 (Simulation time: 0 hr 4 min 31 sec) 
Heartbeat CPU  0 instructions:  140000000 cycles:  236939559 heartbeat IPC: 0.41478 cumulative IPC: 0.23528 (Simulation time: 0 hr 4 min 32 sec) 
Heartbeat CPU  0 instructions:  141000000 cycles:  239036158 heartbeat IPC: 0.47696 cumulative IPC: 0.23823 (Simulation time: 0 hr 4 min 34 sec) 
Heartbeat CPU  0 instructions:  142000000 cycles:  243419701 heartbeat IPC: 0.22813 cumulative IPC: 0.23797 (Simulation time: 0 hr 4 min 36 sec) 
Heartbeat CPU  0 instructions:  143000000 cycles:  248312718 heartbeat IPC: 0.20437 cumulative IPC: 0.23707 (Simulation time: 0 hr 4 min 40 sec) 
Heartbeat CPU  0 instructions:  144000000 cycles:  252490764 heartbeat IPC: 0.23935 cumulative IPC: 0.23712 (Simulation time: 0 hr 4 min 43 sec) 
Heartbeat CPU  0 instructions:  145000002 cycles:  256416302 heartbeat IPC: 0.25474 cumulative IPC: 0.23748 (Simulation time: 0 hr 4 min 46 sec) 
Heartbeat CPU  0 instructions:  146000003 cycles:  258928106 heartbeat IPC: 0.39812 cumulative IPC: 0.23959 (Simulation time: 0 hr 4 min 49 sec) 
Heartbeat CPU  0 instructions:  147000002 cycles:  265557290 heartbeat IPC: 0.15085 cumulative IPC: 0.23662 (Simulation time: 0 hr 4 min 54 sec) 
Heartbeat CPU  0 instructions:  148000000 cycles:  272126600 heartbeat IPC: 0.15222 cumulative IPC: 0.23392 (Simulation time: 0 hr 4 min 58 sec) 
Heartbeat CPU  0 instructions:  149000000 cycles:  274530028 heartbeat IPC: 0.41607 cumulative IPC: 0.23603 (Simulation time: 0 hr 5 min 0 sec) 
Heartbeat CPU  0 instructions:  150000002 cycles:  276503421 heartbeat IPC: 0.50674 cumulative IPC: 0.23858 (Simulation time: 0 hr 5 min 1 sec) 
Heartbeat CPU  0 instructions:  151000000 cycles:  282078813 heartbeat IPC: 0.17936 cumulative IPC: 0.23705 (Simulation time: 0 hr 5 min 5 sec) 
Heartbeat CPU  0 instructions:  152000000 cycles:  286206022 heartbeat IPC: 0.24229 cumulative IPC: 0.23714 (Simulation time: 0 hr 5 min 8 sec) 
Heartbeat CPU  0 instructions:  153000000 cycles:  289793576 heartbeat IPC: 0.27874 cumulative IPC: 0.23781 (Simulation time: 0 hr 5 min 11 sec) 
Heartbeat CPU  0 instructions:  154000002 cycles:  294365811 heartbeat IPC: 0.21871 cumulative IPC: 0.23743 (Simulation time: 0 hr 5 min 14 sec) 
Heartbeat CPU  0 instructions:  155000002 cycles:  296275561 heartbeat IPC: 0.52363 cumulative IPC: 0.23981 (Simulation time: 0 hr 5 min 17 sec) 
Heartbeat CPU  0 instructions:  156000000 cycles:  304175621 heartbeat IPC: 0.12658 cumulative IPC: 0.23604 (Simulation time: 0 hr 5 min 22 sec) 
Heartbeat CPU  0 instructions:  157000000 cycles:  309696536 heartbeat IPC: 0.18113 cumulative IPC: 0.23479 (Simulation time: 0 hr 5 min 26 sec) 
Heartbeat CPU  0 instructions:  158000003 cycles:  312054566 heartbeat IPC: 0.42408 cumulative IPC: 0.23661 (Simulation time: 0 hr 5 min 27 sec) 
Heartbeat CPU  0 instructions:  159000000 cycles:  313917475 heartbeat IPC: 0.53679 cumulative IPC: 0.23888 (Simulation time: 0 hr 5 min 29 sec) 
Heartbeat CPU  0 instructions:  160000000 cycles:  321139581 heartbeat IPC: 0.13846 cumulative IPC: 0.23603 (Simulation time: 0 hr 5 min 33 sec) 
Heartbeat CPU  0 instructions:  161000003 cycles:  324742531 heartbeat IPC: 0.27755 cumulative IPC: 0.23661 (Simulation time: 0 hr 5 min 36 sec) 
Heartbeat CPU  0 instructions:  162000001 cycles:  329039966 heartbeat IPC: 0.23270 cumulative IPC: 0.23654 (Simulation time: 0 hr 5 min 40 sec) 
Heartbeat CPU  0 instructions:  163000000 cycles:  332175682 heartbeat IPC: 0.31891 cumulative IPC: 0.23752 (Simulation time: 0 hr 5 min 42 sec) 
Heartbeat CPU  0 instructions:  164000000 cycles:  335507422 heartbeat IPC: 0.30014 cumulative IPC: 0.23829 (Simulation time: 0 hr 5 min 45 sec) 
Heartbeat CPU  0 instructions:  165000001 cycles:  344732885 heartbeat IPC: 0.10840 cumulative IPC: 0.23398 (Simulation time: 0 hr 5 min 52 sec) 
Heartbeat CPU  0 instructions:  166000000 cycles:  347455557 heartbeat IPC: 0.36729 cumulative IPC: 0.23527 (Simulation time: 0 hr 5 min 53 sec) 
Heartbeat CPU  0 instructions:  167000001 cycles:  349699972 heartbeat IPC: 0.44555 cumulative IPC: 0.23694 (Simulation time: 0 hr 5 min 55 sec) 
Heartbeat CPU  0 instructions:  168000000 cycles:  352731054 heartbeat IPC: 0.32991 cumulative IPC: 0.23793 (Simulation time: 0 hr 5 min 57 sec) 
Heartbeat CPU  0 instructions:  169000001 cycles:  359075263 heartbeat IPC: 0.15762 cumulative IPC: 0.23618 (Simulation time: 0 hr 6 min 1 sec) 
Heartbeat CPU  0 instructions:  170000002 cycles:  363111229 heartbeat IPC: 0.24777 cumulative IPC: 0.23634 (Simulation time: 0 hr 6 min 4 sec) 
Heartbeat CPU  0 instructions:  171000000 cycles:  366862016 heartbeat IPC: 0.26661 cumulative IPC: 0.23672 (Simulation time: 0 hr 6 min 8 sec) 
Heartbeat CPU  0 instructions:  172000000 cycles:  369699506 heartbeat IPC: 0.35242 cumulative IPC: 0.23780 (Simulation time: 0 hr 6 min 10 sec) 
Heartbeat CPU  0 instructions:  173000000 cycles:  374375392 heartbeat IPC: 0.21386 cumulative IPC: 0.23744 (Simulation time: 0 hr 6 min 14 sec) 
Heartbeat CPU  0 instructions:  174000000 cycles:  382619324 heartbeat IPC: 0.12130 cumulative IPC: 0.23441 (Simulation time: 0 hr 6 min 20 sec) 
Heartbeat CPU  0 instructions:  175000000 cycles:  385040386 heartbeat IPC: 0.41304 cumulative IPC: 0.23577 (Simulation time: 0 hr 6 min 21 sec) 
Heartbeat CPU  0 instructions:  176000000 cycles:  387161766 heartbeat IPC: 0.47139 cumulative IPC: 0.23733 (Simulation time: 0 hr 6 min 23 sec) 
Heartbeat CPU  0 instructions:  177000002 cycles:  391471796 heartbeat IPC: 0.23202 cumulative IPC: 0.23726 (Simulation time: 0 hr 6 min 25 sec) 
Heartbeat CPU  0 instructions:  178000001 cycles:  396447576 heartbeat IPC: 0.20097 cumulative IPC: 0.23671 (Simulation time: 0 hr 6 min 29 sec) 
Heartbeat CPU  0 instructions:  179000002 cycles:  400681032 heartbeat IPC: 0.23621 cumulative IPC: 0.23670 (Simulation time: 0 hr 6 min 32 sec) 
Heartbeat CPU  0 instructions:  180000000 cycles:  404793364 heartbeat IPC: 0.24317 cumulative IPC: 0.23678 (Simulation time: 0 hr 6 min 36 sec) 
Heartbeat CPU  0 instructions:  181000003 cycles:  406932641 heartbeat IPC: 0.46745 cumulative IPC: 0.23823 (Simulation time: 0 hr 6 min 38 sec) 
Heartbeat CPU  0 instructions:  182000001 cycles:  414559518 heartbeat IPC: 0.13112 cumulative IPC: 0.23588 (Simulation time: 0 hr 6 min 44 sec) 
Heartbeat CPU  0 instructions:  183000000 cycles:  420346454 heartbeat IPC: 0.17280 cumulative IPC: 0.23485 (Simulation time: 0 hr 6 min 47 sec) 
Heartbeat CPU  0 instructions:  184000000 cycles:  422707030 heartbeat IPC: 0.42363 cumulative IPC: 0.23610 (Simulation time: 0 hr 6 min 49 sec) 
Heartbeat CPU  0 instructions:  185000002 cycles:  424555776 heartbeat IPC: 0.54091 cumulative IPC: 0.23768 (Simulation time: 0 hr 6 min 51 sec) 
Heartbeat CPU  0 instructions:  186000001 cycles:  431453547 heartbeat IPC: 0.14497 cumulative IPC: 0.23592 (Simulation time: 0 hr 6 min 54 sec) 
Heartbeat CPU  0 instructions:  187000000 cycles:  435269072 heartbeat IPC: 0.26209 cumulative IPC: 0.23620 (Simulation time: 0 hr 6 min 58 sec) 
Heartbeat CPU  0 instructions:  188000000 cycles:  438495213 heartbeat IPC: 0.30997 cumulative IPC: 0.23684 (Simulation time: 0 hr 7 min 1 sec) 
Heartbeat CPU  0 instructions:  189000001 cycles:  442519691 heartbeat IPC: 0.24848 cumulative IPC: 0.23696 (Simulation time: 0 hr 7 min 4 sec) 
Heartbeat CPU  0 instructions:  190000001 cycles:  445037139 heartbeat IPC: 0.39723 cumulative IPC: 0.23803 (Simulation time: 0 hr 7 min 7 sec) 
Heartbeat CPU  0 instructions:  191000002 cycles:  453690879 heartbeat IPC: 0.11556 cumulative IPC: 0.23529 (Simulation time: 0 hr 7 min 13 sec) 
Heartbeat CPU  0 instructions:  192000000 cycles:  457746159 heartbeat IPC: 0.24659 cumulative IPC: 0.23541 (Simulation time: 0 hr 7 min 15 sec) 
Heartbeat CPU  0 instructions:  193000003 cycles:  460063924 heartbeat IPC: 0.43145 cumulative IPC: 0.23656 (Simulation time: 0 hr 7 min 17 sec) 
Heartbeat CPU  0 instructions:  194000001 cycles:  462408138 heartbeat IPC: 0.42658 cumulative IPC: 0.23769 (Simulation time: 0 hr 7 min 19 sec) 
Heartbeat CPU  0 instructions:  195000001 cycles:  469455064 heartbeat IPC: 0.14191 cumulative IPC: 0.23601 (Simulation time: 0 hr 7 min 23 sec) 
Heartbeat CPU  0 instructions:  196000000 cycles:  473093697 heartbeat IPC: 0.27483 cumulative IPC: 0.23636 (Simulation time: 0 hr 7 min 26 sec) 
Heartbeat CPU  0 instructions:  197000000 cycles:  476926974 heartbeat IPC: 0.26087 cumulative IPC: 0.23659 (Simulation time: 0 hr 7 min 29 sec) 
Heartbeat CPU  0 instructions:  198000000 cycles:  479869962 heartbeat IPC: 0.33979 cumulative IPC: 0.23732 (Simulation time: 0 hr 7 min 32 sec) 
Heartbeat CPU  0 instructions:  199000002 cycles:  483538817 heartbeat IPC: 0.27257 cumulative IPC: 0.23763 (Simulation time: 0 hr 7 min 35 sec) 
Heartbeat CPU  0 instructions:  200000000 cycles:  492675216 heartbeat IPC: 0.10945 cumulative IPC: 0.23488 (Simulation time: 0 hr 7 min 41 sec) 
Heartbeat CPU  0 instructions:  201000000 cycles:  495101474 heartbeat IPC: 0.41216 cumulative IPC: 0.23589 (Simulation time: 0 hr 7 min 43 sec) 
Heartbeat CPU  0 instructions:  202000002 cycles:  497310920 heartbeat IPC: 0.45260 cumulative IPC: 0.23700 (Simulation time: 0 hr 7 min 44 sec) 
Heartbeat CPU  0 instructions:  203000002 cycles:  500605881 heartbeat IPC: 0.30349 cumulative IPC: 0.23750 (Simulation time: 0 hr 7 min 47 sec) 
Heartbeat CPU  0 instructions:  204000000 cycles:  506653409 heartbeat IPC: 0.16536 cumulative IPC: 0.23651 (Simulation time: 0 hr 7 min 50 sec) 
Heartbeat CPU  0 instructions:  205000000 cycles:  510657963 heartbeat IPC: 0.24972 cumulative IPC: 0.23663 (Simulation time: 0 hr 7 min 54 sec) 
Heartbeat CPU  0 instructions:  206000000 cycles:  511688652 heartbeat IPC: 0.97022 cumulative IPC: 0.23833 (Simulation time: 0 hr 7 min 56 sec) 
Heartbeat CPU  0 instructions:  207000002 cycles:  523332898 heartbeat IPC: 0.08588 cumulative IPC: 0.23444 (Simulation time: 0 hr 8 min 1 sec) 
Heartbeat CPU  0 instructions:  208000000 cycles:  527412833 heartbeat IPC: 0.24510 cumulative IPC: 0.23454 (Simulation time: 0 hr 8 min 5 sec) 
Heartbeat CPU  0 instructions:  209000001 cycles:  533886004 heartbeat IPC: 0.15448 cumulative IPC: 0.23343 (Simulation time: 0 hr 8 min 10 sec) 
Heartbeat CPU  0 instructions:  210000000 cycles:  539108501 heartbeat IPC: 0.19148 cumulative IPC: 0.23296 (Simulation time: 0 hr 8 min 13 sec) 
Heartbeat CPU  0 instructions:  211000001 cycles:  544192407 heartbeat IPC: 0.19670 cumulative IPC: 0.23258 (Simulation time: 0 hr 8 min 17 sec) 
Heartbeat CPU  0 instructions:  212000000 cycles:  548263446 heartbeat IPC: 0.24564 cumulative IPC: 0.23269 (Simulation time: 0 hr 8 min 21 sec) 
Heartbeat CPU  0 instructions:  213000002 cycles:  552998094 heartbeat IPC: 0.21121 cumulative IPC: 0.23248 (Simulation time: 0 hr 8 min 24 sec) 
Heartbeat CPU  0 instructions:  214000001 cycles:  557035335 heartbeat IPC: 0.24769 cumulative IPC: 0.23260 (Simulation time: 0 hr 8 min 26 sec) 
Heartbeat CPU  0 instructions:  215000002 cycles:  560689202 heartbeat IPC: 0.27368 cumulative IPC: 0.23291 (Simulation time: 0 hr 8 min 29 sec) 
Heartbeat CPU  0 instructions:  216000000 cycles:  563106281 heartbeat IPC: 0.41372 cumulative IPC: 0.23379 (Simulation time: 0 hr 8 min 31 sec) 
Heartbeat CPU  0 instructions:  217000000 cycles:  566018124 heartbeat IPC: 0.34343 cumulative IPC: 0.23443 (Simulation time: 0 hr 8 min 34 sec) 
Heartbeat CPU  0 instructions:  218000002 cycles:  568485245 heartbeat IPC: 0.40533 cumulative IPC: 0.23527 (Simulation time: 0 hr 8 min 37 sec) 
Heartbeat CPU  0 instructions:  219000002 cycles:  570554274 heartbeat IPC: 0.48332 cumulative IPC: 0.23629 (Simulation time: 0 hr 8 min 39 sec) 
Heartbeat CPU  0 instructions:  220000000 cycles:  573316539 heartbeat IPC: 0.36202 cumulative IPC: 0.23697 (Simulation time: 0 hr 8 min 42 sec) 
Heartbeat CPU  0 instructions:  221000000 cycles:  576921198 heartbeat IPC: 0.27742 cumulative IPC: 0.23726 (Simulation time: 0 hr 8 min 45 sec) 
Heartbeat CPU  0 instructions:  222000003 cycles:  581229894 heartbeat IPC: 0.23209 cumulative IPC: 0.23722 (Simulation time: 0 hr 8 min 48 sec) 
Heartbeat CPU  0 instructions:  223000001 cycles:  584819279 heartbeat IPC: 0.27860 cumulative IPC: 0.23750 (Simulation time: 0 hr 8 min 51 sec) 
Heartbeat CPU  0 instructions:  224000000 cycles:  587391752 heartbeat IPC: 0.38873 cumulative IPC: 0.23825 (Simulation time: 0 hr 8 min 54 sec) 
Heartbeat CPU  0 instructions:  225000000 cycles:  591111387 heartbeat IPC: 0.26884 cumulative IPC: 0.23847 (Simulation time: 0 hr 8 min 57 sec) 
Heartbeat CPU  0 instructions:  226000003 cycles:  593451257 heartbeat IPC: 0.42738 cumulative IPC: 0.23931 (Simulation time: 0 hr 9 min 0 sec) 
Heartbeat CPU  0 instructions:  227000000 cycles:  602146021 heartbeat IPC: 0.11501 cumulative IPC: 0.23729 (Simulation time: 0 hr 9 min 6 sec) 
Heartbeat CPU  0 instructions:  228000000 cycles:  606817674 heartbeat IPC: 0.21406 cumulative IPC: 0.23709 (Simulation time: 0 hr 9 min 9 sec) 
Heartbeat CPU  0 instructions:  229000001 cycles:  609140287 heartbeat IPC: 0.43055 cumulative IPC: 0.23792 (Simulation time: 0 hr 9 min 10 sec) 
Heartbeat CPU  0 instructions:  230000000 cycles:  611234766 heartbeat IPC: 0.47745 cumulative IPC: 0.23884 (Simulation time: 0 hr 9 min 12 sec) 
Heartbeat CPU  0 instructions:  231000000 cycles:  618543855 heartbeat IPC: 0.13682 cumulative IPC: 0.23749 (Simulation time: 0 hr 9 min 16 sec) 
Heartbeat CPU  0 instructions:  232000000 cycles:  622099614 heartbeat IPC: 0.28123 cumulative IPC: 0.23777 (Simulation time: 0 hr 9 min 19 sec) 
Heartbeat CPU  0 instructions:  233000000 cycles:  626459522 heartbeat IPC: 0.22936 cumulative IPC: 0.23770 (Simulation time: 0 hr 9 min 23 sec) 
Heartbeat CPU  0 instructions:  234000002 cycles:  629289605 heartbeat IPC: 0.35335 cumulative IPC: 0.23828 (Simulation time: 0 hr 9 min 26 sec) 
Heartbeat CPU  0 instructions:  235000000 cycles:  634016028 heartbeat IPC: 0.21158 cumulative IPC: 0.23806 (Simulation time: 0 hr 9 min 29 sec) 
Heartbeat CPU  0 instructions:  236000000 cycles:  642157545 heartbeat IPC: 0.12283 cumulative IPC: 0.23643 (Simulation time: 0 hr 9 min 35 sec) 
Heartbeat CPU  0 instructions:  237000002 cycles:  644562031 heartbeat IPC: 0.41589 cumulative IPC: 0.23718 (Simulation time: 0 hr 9 min 36 sec) 
Heartbeat CPU  0 instructions:  238000002 cycles:  646662727 heartbeat IPC: 0.47603 cumulative IPC: 0.23804 (Simulation time: 0 hr 9 min 38 sec) 
Heartbeat CPU  0 instructions:  239000001 cycles:  651063842 heartbeat IPC: 0.22721 cumulative IPC: 0.23796 (Simulation time: 0 hr 9 min 41 sec) 
Heartbeat CPU  0 instructions:  240000000 cycles:  655891825 heartbeat IPC: 0.20713 cumulative IPC: 0.23771 (Simulation time: 0 hr 9 min 44 sec) 
Heartbeat CPU  0 instructions:  241000001 cycles:  660085201 heartbeat IPC: 0.23847 cumulative IPC: 0.23771 (Simulation time: 0 hr 9 min 47 sec) 
Heartbeat CPU  0 instructions:  242000002 cycles:  663981231 heartbeat IPC: 0.25667 cumulative IPC: 0.23784 (Simulation time: 0 hr 9 min 51 sec) 
Heartbeat CPU  0 instructions:  243000002 cycles:  666397914 heartbeat IPC: 0.41379 cumulative IPC: 0.23855 (Simulation time: 0 hr 9 min 53 sec) 
Heartbeat CPU  0 instructions:  244000000 cycles:  673022514 heartbeat IPC: 0.15095 cumulative IPC: 0.23759 (Simulation time: 0 hr 9 min 58 sec) 
Heartbeat CPU  0 instructions:  245000001 cycles:  679570170 heartbeat IPC: 0.15273 cumulative IPC: 0.23668 (Simulation time: 0 hr 10 min 2 sec) 
Heartbeat CPU  0 instructions:  246000001 cycles:  681972052 heartbeat IPC: 0.41634 cumulative IPC: 0.23738 (Simulation time: 0 hr 10 min 4 sec) 
Heartbeat CPU  0 instructions:  247000001 cycles:  683955069 heartbeat IPC: 0.50428 cumulative IPC: 0.23824 (Simulation time: 0 hr 10 min 5 sec) 
Heartbeat CPU  0 instructions:  248000000 cycles:  689632360 heartbeat IPC: 0.17614 cumulative IPC: 0.23767 (Simulation time: 0 hr 10 min 9 sec) 
Heartbeat CPU  0 instructions:  249000000 cycles:  693712459 heartbeat IPC: 0.24509 cumulative IPC: 0.23772 (Simulation time: 0 hr 10 min 12 sec) 
Heartbeat CPU  0 instructions:  250000000 cycles:  697268750 heartbeat IPC: 0.28119 cumulative IPC: 0.23797 (Simulation time: 0 hr 10 min 15 sec) 
Heartbeat CPU  0 instructions:  251000002 cycles:  701744154 heartbeat IPC: 0.22344 cumulative IPC: 0.23787 (Simulation time: 0 hr 10 min 19 sec) 
Heartbeat CPU  0 instructions:  252000000 cycles:  703577100 heartbeat IPC: 0.54557 cumulative IPC: 0.23875 (Simulation time: 0 hr 10 min 21 sec) 
Heartbeat CPU  0 instructions:  253000000 cycles:  711549128 heartbeat IPC: 0.12544 cumulative IPC: 0.23735 (Simulation time: 0 hr 10 min 26 sec) 
Heartbeat CPU  0 instructions:  254000000 cycles:  717015290 heartbeat IPC: 0.18294 cumulative IPC: 0.23689 (Simulation time: 0 hr 10 min 30 sec) 
Heartbeat CPU  0 instructions:  255000002 cycles:  719359037 heartbeat IPC: 0.42667 cumulative IPC: 0.23757 (Simulation time: 0 hr 10 min 32 sec) 
Heartbeat CPU  0 instructions:  256000000 cycles:  721216131 heartbeat IPC: 0.53847 cumulative IPC: 0.23843 (Simulation time: 0 hr 10 min 33 sec) 
Heartbeat CPU  0 instructions:  257000000 cycles:  728516460 heartbeat IPC: 0.13698 cumulative IPC: 0.23731 (Simulation time: 0 hr 10 min 37 sec) 
Heartbeat CPU  0 instructions:  258000002 cycles:  732130628 heartbeat IPC: 0.27669 cumulative IPC: 0.23752 (Simulation time: 0 hr 10 min 40 sec) 
Heartbeat CPU  0 instructions:  259000003 cycles:  735553850 heartbeat IPC: 0.29212 cumulative IPC: 0.23780 (Simulation time: 0 hr 10 min 43 sec) 
Heartbeat CPU  0 instructions:  260000000 cycles:  739325897 heartbeat IPC: 0.26511 cumulative IPC: 0.23796 (Simulation time: 0 hr 10 min 46 sec) 
Heartbeat CPU  0 instructions:  261000000 cycles:  742171360 heartbeat IPC: 0.35144 cumulative IPC: 0.23843 (Simulation time: 0 hr 10 min 50 sec) 
Heartbeat CPU  0 instructions:  262000000 cycles:  750994732 heartbeat IPC: 0.11334 cumulative IPC: 0.23682 (Simulation time: 0 hr 10 min 56 sec) 
Heartbeat CPU  0 instructions:  263000002 cycles:  754566937 heartbeat IPC: 0.27994 cumulative IPC: 0.23704 (Simulation time: 0 hr 10 min 58 sec) 
Heartbeat CPU  0 instructions:  264000000 cycles:  756851057 heartbeat IPC: 0.43780 cumulative IPC: 0.23771 (Simulation time: 0 hr 10 min 59 sec) 
Heartbeat CPU  0 instructions:  265000002 cycles:  759503566 heartbeat IPC: 0.37700 cumulative IPC: 0.23824 (Simulation time: 0 hr 11 min 1 sec) 
Heartbeat CPU  0 instructions:  266000002 cycles:  766254332 heartbeat IPC: 0.14813 cumulative IPC: 0.23737 (Simulation time: 0 hr 11 min 5 sec) 
Heartbeat CPU  0 instructions:  267000000 cycles:  770039164 heartbeat IPC: 0.26421 cumulative IPC: 0.23752 (Simulation time: 0 hr 11 min 8 sec) 
Heartbeat CPU  0 instructions:  268000000 cycles:  773838966 heartbeat IPC: 0.26317 cumulative IPC: 0.23765 (Simulation time: 0 hr 11 min 12 sec) 
Heartbeat CPU  0 instructions:  269000002 cycles:  776671520 heartbeat IPC: 0.35304 cumulative IPC: 0.23811 (Simulation time: 0 hr 11 min 14 sec) 
Heartbeat CPU  0 instructions:  270000000 cycles:  780764330 heartbeat IPC: 0.24433 cumulative IPC: 0.23815 (Simulation time: 0 hr 11 min 18 sec) 
Heartbeat CPU  0 instructions:  271000003 cycles:  789585655 heartbeat IPC: 0.11336 cumulative IPC: 0.23663 (Simulation time: 0 hr 11 min 24 sec) 
Heartbeat CPU  0 instructions:  272000000 cycles:  792018924 heartbeat IPC: 0.41097 cumulative IPC: 0.23721 (Simulation time: 0 hr 11 min 25 sec) 
Heartbeat CPU  0 instructions:  273000003 cycles:  794190257 heartbeat IPC: 0.46055 cumulative IPC: 0.23788 (Simulation time: 0 hr 11 min 27 sec) 
Heartbeat CPU  0 instructions:  274000001 cycles:  797897502 heartbeat IPC: 0.26974 cumulative IPC: 0.23804 (Simulation time: 0 hr 11 min 29 sec) 
Heartbeat CPU  0 instructions:  275000000 cycles:  803550760 heartbeat IPC: 0.17689 cumulative IPC: 0.23757 (Simulation time: 0 hr 11 min 33 sec) 
Heartbeat CPU  0 instructions:  276000000 cycles:  807606032 heartbeat IPC: 0.24659 cumulative IPC: 0.23762 (Simulation time: 0 hr 11 min 36 sec) 
Heartbeat CPU  0 instructions:  277000001 cycles:  811454409 heartbeat IPC: 0.25985 cumulative IPC: 0.23774 (Simulation time: 0 hr 11 min 40 sec) 
Heartbeat CPU  0 instructions:  278000000 cycles:  814101161 heartbeat IPC: 0.37782 cumulative IPC: 0.23823 (Simulation time: 0 hr 11 min 42 sec) 
Heartbeat CPU  0 instructions:  279000003 cycles:  819880250 heartbeat IPC: 0.17304 cumulative IPC: 0.23773 (Simulation time: 0 hr 11 min 47 sec) 
Heartbeat CPU  0 instructions:  280000000 cycles:  827127051 heartbeat IPC: 0.13799 cumulative IPC: 0.23678 (Simulation time: 0 hr 11 min 51 sec) 
Heartbeat CPU  0 instructions:  281000000 cycles:  829517040 heartbeat IPC: 0.41841 cumulative IPC: 0.23735 (Simulation time: 0 hr 11 min 53 sec) 
Heartbeat CPU  0 instructions:  282000000 cycles:  831565583 heartbeat IPC: 0.48815 cumulative IPC: 0.23802 (Simulation time: 0 hr 11 min 55 sec) 
Heartbeat CPU  0 instructions:  283000003 cycles:  836572810 heartbeat IPC: 0.19971 cumulative IPC: 0.23777 (Simulation time: 0 hr 11 min 58 sec) 
Heartbeat CPU  0 instructions:  284000000 cycles:  840736866 heartbeat IPC: 0.24015 cumulative IPC: 0.23779 (Simulation time: 0 hr 12 min 1 sec) 
Heartbeat CPU  0 instructions:  285000001 cycles:  844973982 heartbeat IPC: 0.23601 cumulative IPC: 0.23778 (Simulation time: 0 hr 12 min 4 sec) 
Heartbeat CPU  0 instructions:  286000000 cycles:  849036134 heartbeat IPC: 0.24617 cumulative IPC: 0.23782 (Simulation time: 0 hr 12 min 8 sec) 
Heartbeat CPU  0 instructions:  287000003 cycles:  851293833 heartbeat IPC: 0.44293 cumulative IPC: 0.23841 (Simulation time: 0 hr 12 min 10 sec) 
Heartbeat CPU  0 instructions:  288000000 cycles:  858516872 heartbeat IPC: 0.13845 cumulative IPC: 0.23750 (Simulation time: 0 hr 12 min 15 sec) 
Heartbeat CPU  0 instructions:  289000000 cycles:  864587056 heartbeat IPC: 0.16474 cumulative IPC: 0.23694 (Simulation time: 0 hr 12 min 19 sec) 
Heartbeat CPU  0 instructions:  290000000 cycles:  866976184 heartbeat IPC: 0.41856 cumulative IPC: 0.23749 (Simulation time: 0 hr 12 min 21 sec) 
Heartbeat CPU  0 instructions:  291000000 cycles:  868881453 heartbeat IPC: 0.52486 cumulative IPC: 0.23817 (Simulation time: 0 hr 12 min 22 sec) 
Heartbeat CPU  0 instructions:  292000000 cycles:  875247181 heartbeat IPC: 0.15709 cumulative IPC: 0.23753 (Simulation time: 0 hr 12 min 26 sec) 
Heartbeat CPU  0 instructions:  293000002 cycles:  879362417 heartbeat IPC: 0.24300 cumulative IPC: 0.23756 (Simulation time: 0 hr 12 min 29 sec) 
Heartbeat CPU  0 instructions:  294000001 cycles:  882646515 heartbeat IPC: 0.30450 cumulative IPC: 0.23783 (Simulation time: 0 hr 12 min 32 sec) 
Heartbeat CPU  0 instructions:  295000003 cycles:  886848025 heartbeat IPC: 0.23801 cumulative IPC: 0.23783 (Simulation time: 0 hr 12 min 36 sec) 
Heartbeat CPU  0 instructions:  296000000 cycles:  888885636 heartbeat IPC: 0.49077 cumulative IPC: 0.23846 (Simulation time: 0 hr 12 min 38 sec) 
Heartbeat CPU  0 instructions:  297000002 cycles:  897554200 heartbeat IPC: 0.11536 cumulative IPC: 0.23717 (Simulation time: 0 hr 12 min 44 sec) 
Heartbeat CPU  0 instructions:  298000000 cycles:  902265029 heartbeat IPC: 0.21228 cumulative IPC: 0.23703 (Simulation time: 0 hr 12 min 47 sec) 
Heartbeat CPU  0 instructions:  299000000 cycles:  904602358 heartbeat IPC: 0.42784 cumulative IPC: 0.23756 (Simulation time: 0 hr 12 min 49 sec) 
Heartbeat CPU  0 instructions:  300000000 cycles:  908023020 heartbeat IPC: 0.29234 cumulative IPC: 0.23779 (Simulation time: 0 hr 12 min 51 sec) 
Heartbeat CPU  0 instructions:  301000001 cycles:  914201329 heartbeat IPC: 0.16186 cumulative IPC: 0.23723 (Simulation time: 0 hr 12 min 55 sec) 
Heartbeat CPU  0 instructions:  302000001 cycles:  918833398 heartbeat IPC: 0.21589 cumulative IPC: 0.23712 (Simulation time: 0 hr 12 min 58 sec) 
Heartbeat CPU  0 instructions:  303000000 cycles:  922606971 heartbeat IPC: 0.26500 cumulative IPC: 0.23724 (Simulation time: 0 hr 13 min 1 sec) 
Heartbeat CPU  0 instructions:  304000000 cycles:  925779177 heartbeat IPC: 0.31524 cumulative IPC: 0.23753 (Simulation time: 0 hr 13 min 4 sec) 
Heartbeat CPU  0 instructions:  305000003 cycles:  929930944 heartbeat IPC: 0.24086 cumulative IPC: 0.23754 (Simulation time: 0 hr 13 min 7 sec) 
Heartbeat CPU  0 instructions:  306000003 cycles:  932112021 heartbeat IPC: 0.45849 cumulative IPC: 0.23810 (Simulation time: 0 hr 13 min 10 sec) 
Heartbeat CPU  0 instructions:  307000003 cycles:  940681784 heartbeat IPC: 0.11669 cumulative IPC: 0.23691 (Simulation time: 0 hr 13 min 16 sec) 
Heartbeat CPU  0 instructions:  308000000 cycles:  945125139 heartbeat IPC: 0.22505 cumulative IPC: 0.23685 (Simulation time: 0 hr 13 min 18 sec) 
Heartbeat CPU  0 instructions:  309000001 cycles:  947448317 heartbeat IPC: 0.43045 cumulative IPC: 0.23736 (Simulation time: 0 hr 13 min 20 sec) 
Heartbeat CPU  0 instructions:  310000000 cycles:  950988590 heartbeat IPC: 0.28246 cumulative IPC: 0.23754 (Simulation time: 0 hr 13 min 22 sec) 
Heartbeat CPU  0 instructions:  311000001 cycles:  956935084 heartbeat IPC: 0.16817 cumulative IPC: 0.23708 (Simulation time: 0 hr 13 min 26 sec) 
Heartbeat CPU  0 instructions:  312000000 cycles:  961775428 heartbeat IPC: 0.20660 cumulative IPC: 0.23691 (Simulation time: 0 hr 13 min 29 sec) 
Heartbeat CPU  0 instructions:  313000000 cycles:  965498118 heartbeat IPC: 0.26862 cumulative IPC: 0.23704 (Simulation time: 0 hr 13 min 32 sec) 
Heartbeat CPU  0 instructions:  314000003 cycles:  967803656 heartbeat IPC: 0.43374 cumulative IPC: 0.23755 (Simulation time: 0 hr 13 min 35 sec) 
Heartbeat CPU  0 instructions:  315000000 cycles:  974282927 heartbeat IPC: 0.15434 cumulative IPC: 0.23695 (Simulation time: 0 hr 13 min 39 sec) 
Heartbeat CPU  0 instructions:  316000000 cycles:  982478698 heartbeat IPC: 0.12201 cumulative IPC: 0.23592 (Simulation time: 0 hr 13 min 43 sec) 
Heartbeat CPU  0 instructions:  317000002 cycles:  988146032 heartbeat IPC: 0.17645 cumulative IPC: 0.23556 (Simulation time: 0 hr 13 min 48 sec) 
Heartbeat CPU  0 instructions:  318000001 cycles:  993561071 heartbeat IPC: 0.18467 cumulative IPC: 0.23526 (Simulation time: 0 hr 13 min 52 sec) 
Heartbeat CPU  0 instructions:  319000001 cycles:  998642407 heartbeat IPC: 0.19680 cumulative IPC: 0.23505 (Simulation time: 0 hr 13 min 56 sec) 
Heartbeat CPU  0 instructions:  320000000 cycles: 1003234891 heartbeat IPC: 0.21775 cumulative IPC: 0.23497 (Simulation time: 0 hr 13 min 59 sec) 
Heartbeat CPU  0 instructions:  321000003 cycles: 1007910467 heartbeat IPC: 0.21388 cumulative IPC: 0.23486 (Simulation time: 0 hr 14 min 3 sec) 
Heartbeat CPU  0 instructions:  322000001 cycles: 1011790965 heartbeat IPC: 0.25770 cumulative IPC: 0.23496 (Simulation time: 0 hr 14 min 5 sec) 
Heartbeat CPU  0 instructions:  323000002 cycles: 1015777084 heartbeat IPC: 0.25087 cumulative IPC: 0.23502 (Simulation time: 0 hr 14 min 8 sec) 
Heartbeat CPU  0 instructions:  324000000 cycles: 1018685171 heartbeat IPC: 0.34387 cumulative IPC: 0.23535 (Simulation time: 0 hr 14 min 10 sec) 
Heartbeat CPU  0 instructions:  325000000 cycles: 1021459105 heartbeat IPC: 0.36050 cumulative IPC: 0.23572 (Simulation time: 0 hr 14 min 13 sec) 
Heartbeat CPU  0 instructions:  326000002 cycles: 1023720204 heartbeat IPC: 0.44226 cumulative IPC: 0.23621 (Simulation time: 0 hr 14 min 15 sec) 
Heartbeat CPU  0 instructions:  327000001 cycles: 1026645131 heartbeat IPC: 0.34189 cumulative IPC: 0.23653 (Simulation time: 0 hr 14 min 18 sec) 
Heartbeat CPU  0 instructions:  328000000 cycles: 1028299252 heartbeat IPC: 0.60455 cumulative IPC: 0.23716 (Simulation time: 0 hr 14 min 21 sec) 
Heartbeat CPU  0 instructions:  329000001 cycles: 1031480764 heartbeat IPC: 0.31432 cumulative IPC: 0.23742 (Simulation time: 0 hr 14 min 23 sec) 
Heartbeat CPU  0 instructions:  330000000 cycles: 1035999999 heartbeat IPC: 0.22128 cumulative IPC: 0.23734 (Simulation time: 0 hr 14 min 27 sec) 
Heartbeat CPU  0 instructions:  331000002 cycles: 1039883209 heartbeat IPC: 0.25752 cumulative IPC: 0.23742 (Simulation time: 0 hr 14 min 30 sec) 
Heartbeat CPU  0 instructions:  332000000 cycles: 1042681982 heartbeat IPC: 0.35730 cumulative IPC: 0.23777 (Simulation time: 0 hr 14 min 33 sec) 
Heartbeat CPU  0 instructions:  333000003 cycles: 1046290384 heartbeat IPC: 0.27713 cumulative IPC: 0.23791 (Simulation time: 0 hr 14 min 36 sec) 
Heartbeat CPU  0 instructions:  334000000 cycles: 1049218472 heartbeat IPC: 0.34152 cumulative IPC: 0.23822 (Simulation time: 0 hr 14 min 39 sec) 
Heartbeat CPU  0 instructions:  335000002 cycles: 1055175692 heartbeat IPC: 0.16786 cumulative IPC: 0.23780 (Simulation time: 0 hr 14 min 43 sec) 
Heartbeat CPU  0 instructions:  336000000 cycles: 1062436040 heartbeat IPC: 0.13773 cumulative IPC: 0.23707 (Simulation time: 0 hr 14 min 48 sec) 
Heartbeat CPU  0 instructions:  337000000 cycles: 1064845638 heartbeat IPC: 0.41501 cumulative IPC: 0.23750 (Simulation time: 0 hr 14 min 50 sec) 
Heartbeat CPU  0 instructions:  338000000 cycles: 1066877703 heartbeat IPC: 0.49211 cumulative IPC: 0.23801 (Simulation time: 0 hr 14 min 51 sec) 
Heartbeat CPU  0 instructions:  339000001 cycles: 1073451546 heartbeat IPC: 0.15212 cumulative IPC: 0.23745 (Simulation time: 0 hr 14 min 55 sec) 
Heartbeat CPU  0 instructions:  340000000 cycles: 1077232822 heartbeat IPC: 0.26446 cumulative IPC: 0.23755 (Simulation time: 0 hr 14 min 58 sec) 
Heartbeat CPU  0 instructions:  341000003 cycles: 1081983830 heartbeat IPC: 0.21048 cumulative IPC: 0.23743 (Simulation time: 0 hr 15 min 1 sec) 
Heartbeat CPU  0 instructions:  342000001 cycles: 1085874183 heartbeat IPC: 0.25705 cumulative IPC: 0.23750 (Simulation time: 0 hr 15 min 4 sec) 
Heartbeat CPU  0 instructions:  343000003 cycles: 1090042859 heartbeat IPC: 0.23988 cumulative IPC: 0.23751 (Simulation time: 0 hr 15 min 8 sec) 
Heartbeat CPU  0 instructions:  344000000 cycles: 1092270081 heartbeat IPC: 0.44899 cumulative IPC: 0.23797 (Simulation time: 0 hr 15 min 10 sec) 
Heartbeat CPU  0 instructions:  345000000 cycles: 1099753111 heartbeat IPC: 0.13364 cumulative IPC: 0.23721 (Simulation time: 0 hr 15 min 16 sec) 
Heartbeat CPU  0 instructions:  346000000 cycles: 1105587977 heartbeat IPC: 0.17138 cumulative IPC: 0.23684 (Simulation time: 0 hr 15 min 19 sec) 
Heartbeat CPU  0 instructions:  347000000 cycles: 1107955361 heartbeat IPC: 0.42241 cumulative IPC: 0.23727 (Simulation time: 0 hr 15 min 21 sec) 
Heartbeat CPU  0 instructions:  348000000 cycles: 1109999132 heartbeat IPC: 0.48929 cumulative IPC: 0.23776 (Simulation time: 0 hr 15 min 23 sec) 
Heartbeat CPU  0 instructions:  349000000 cycles: 1117597673 heartbeat IPC: 0.13160 cumulative IPC: 0.23699 (Simulation time: 0 hr 15 min 27 sec) 
Heartbeat CPU  0 instructions:  350000000 cycles: 1121342735 heartbeat IPC: 0.26702 cumulative IPC: 0.23710 (Simulation time: 0 hr 15 min 29 sec) 
Heartbeat CPU  0 instructions:  351000000 cycles: 1125197692 heartbeat IPC: 0.25941 cumulative IPC: 0.23718 (Simulation time: 0 hr 15 min 33 sec) 
Heartbeat CPU  0 instructions:  352000000 cycles: 1128844197 heartbeat IPC: 0.27424 cumulative IPC: 0.23731 (Simulation time: 0 hr 15 min 36 sec) 
Heartbeat CPU  0 instructions:  353000001 cycles: 1133059828 heartbeat IPC: 0.23721 cumulative IPC: 0.23731 (Simulation time: 0 hr 15 min 39 sec) 
Heartbeat CPU  0 instructions:  354000001 cycles: 1135233335 heartbeat IPC: 0.46009 cumulative IPC: 0.23776 (Simulation time: 0 hr 15 min 42 sec) 
Heartbeat CPU  0 instructions:  355000000 cycles: 1142912977 heartbeat IPC: 0.13021 cumulative IPC: 0.23699 (Simulation time: 0 hr 15 min 47 sec) 
Heartbeat CPU  0 instructions:  356000000 cycles: 1148604070 heartbeat IPC: 0.17571 cumulative IPC: 0.23667 (Simulation time: 0 hr 15 min 51 sec) 
Heartbeat CPU  0 instructions:  357000002 cycles: 1150971788 heartbeat IPC: 0.42235 cumulative IPC: 0.23708 (Simulation time: 0 hr 15 min 52 sec) 
Heartbeat CPU  0 instructions:  358000000 cycles: 1153179192 heartbeat IPC: 0.45302 cumulative IPC: 0.23751 (Simulation time: 0 hr 15 min 54 sec) 
Heartbeat CPU  0 instructions:  359000001 cycles: 1160543315 heartbeat IPC: 0.13579 cumulative IPC: 0.23683 (Simulation time: 0 hr 15 min 58 sec) 
Heartbeat CPU  0 instructions:  360000000 cycles: 1164412391 heartbeat IPC: 0.25846 cumulative IPC: 0.23691 (Simulation time: 0 hr 16 min 1 sec) 
Heartbeat CPU  0 instructions:  361000003 cycles: 1168260726 heartbeat IPC: 0.25985 cumulative IPC: 0.23699 (Simulation time: 0 hr 16 min 4 sec) 
Heartbeat CPU  0 instructions:  362000000 cycles: 1171707869 heartbeat IPC: 0.29009 cumulative IPC: 0.23715 (Simulation time: 0 hr 16 min 7 sec) 
Heartbeat CPU  0 instructions:  363000000 cycles: 1176118516 heartbeat IPC: 0.22672 cumulative IPC: 0.23711 (Simulation time: 0 hr 16 min 11 sec) 
Heartbeat CPU  0 instructions:  364000000 cycles: 1178016521 heartbeat IPC: 0.52687 cumulative IPC: 0.23761 (Simulation time: 0 hr 16 min 13 sec) 
Heartbeat CPU  0 instructions:  365000003 cycles: 1185922153 heartbeat IPC: 0.12649 cumulative IPC: 0.23682 (Simulation time: 0 hr 16 min 19 sec) 
Heartbeat CPU  0 instructions:  366000000 cycles: 1191447937 heartbeat IPC: 0.18097 cumulative IPC: 0.23655 (Simulation time: 0 hr 16 min 22 sec) 
Heartbeat CPU  0 instructions:  367000001 cycles: 1193797000 heartbeat IPC: 0.42570 cumulative IPC: 0.23694 (Simulation time: 0 hr 16 min 24 sec) 
Heartbeat CPU  0 instructions:  368000000 cycles: 1196231573 heartbeat IPC: 0.41075 cumulative IPC: 0.23731 (Simulation time: 0 hr 16 min 25 sec) 
Heartbeat CPU  0 instructions:  369000001 cycles: 1203389470 heartbeat IPC: 0.13971 cumulative IPC: 0.23670 (Simulation time: 0 hr 16 min 30 sec) 
Heartbeat CPU  0 instructions:  370000003 cycles: 1207383187 heartbeat IPC: 0.25039 cumulative IPC: 0.23675 (Simulation time: 0 hr 16 min 32 sec) 
Heartbeat CPU  0 instructions:  371000001 cycles: 1211287327 heartbeat IPC: 0.25614 cumulative IPC: 0.23681 (Simulation time: 0 hr 16 min 35 sec) 
Heartbeat CPU  0 instructions:  372000000 cycles: 1214587225 heartbeat IPC: 0.30304 cumulative IPC: 0.23700 (Simulation time: 0 hr 16 min 38 sec) 
Heartbeat CPU  0 instructions:  373000003 cycles: 1219040287 heartbeat IPC: 0.22457 cumulative IPC: 0.23696 (Simulation time: 0 hr 16 min 42 sec) 
Heartbeat CPU  0 instructions:  374000001 cycles: 1220858253 heartbeat IPC: 0.55006 cumulative IPC: 0.23745 (Simulation time: 0 hr 16 min 44 sec) 
Heartbeat CPU  0 instructions:  375000002 cycles: 1228942424 heartbeat IPC: 0.12370 cumulative IPC: 0.23666 (Simulation time: 0 hr 16 min 50 sec) 
Heartbeat CPU  0 instructions:  376000000 cycles: 1234340555 heartbeat IPC: 0.18525 cumulative IPC: 0.23642 (Simulation time: 0 hr 16 min 53 sec) 
Heartbeat CPU  0 instructions:  377000000 cycles: 1236685082 heartbeat IPC: 0.42653 cumulative IPC: 0.23680 (Simulation time: 0 hr 16 min 55 sec) 
Heartbeat CPU  0 instructions:  378000000 cycles: 1239397622 heartbeat IPC: 0.36866 cumulative IPC: 0.23711 (Simulation time: 0 hr 16 min 57 sec) 
Heartbeat CPU  0 instructions:  379000002 cycles: 1246273478 heartbeat IPC: 0.14544 cumulative IPC: 0.23657 (Simulation time: 0 hr 17 min 1 sec) 
Heartbeat CPU  0 instructions:  380000000 cycles: 1250344689 heartbeat IPC: 0.24563 cumulative IPC: 0.23660 (Simulation time: 0 hr 17 min 3 sec) 
Heartbeat CPU  0 instructions:  381000000 cycles: 1254252486 heartbeat IPC: 0.25590 cumulative IPC: 0.23667 (Simulation time: 0 hr 17 min 7 sec) 
Heartbeat CPU  0 instructions:  382000003 cycles: 1257409602 heartbeat IPC: 0.31675 cumulative IPC: 0.23688 (Simulation time: 0 hr 17 min 9 sec) 
Heartbeat CPU  0 instructions:  383000001 cycles: 1261800081 heartbeat IPC: 0.22777 cumulative IPC: 0.23685 (Simulation time: 0 hr 17 min 13 sec) 
Heartbeat CPU  0 instructions:  384000000 cycles: 1263578521 heartbeat IPC: 0.56229 cumulative IPC: 0.23733 (Simulation time: 0 hr 17 min 15 sec) 
Heartbeat CPU  0 instructions:  385000000 cycles: 1272011430 heartbeat IPC: 0.11858 cumulative IPC: 0.23650 (Simulation time: 0 hr 17 min 21 sec) 
Heartbeat CPU  0 instructions:  386000002 cycles: 1277079568 heartbeat IPC: 0.19731 cumulative IPC: 0.23633 (Simulation time: 0 hr 17 min 24 sec) 
Heartbeat CPU  0 instructions:  387000000 cycles: 1279427026 heartbeat IPC: 0.42599 cumulative IPC: 0.23670 (Simulation time: 0 hr 17 min 26 sec) 
Heartbeat CPU  0 instructions:  388000000 cycles: 1282436653 heartbeat IPC: 0.33227 cumulative IPC: 0.23694 (Simulation time: 0 hr 17 min 28 sec) 
Heartbeat CPU  0 instructions:  389000001 cycles: 1289029381 heartbeat IPC: 0.15168 cumulative IPC: 0.23648 (Simulation time: 0 hr 17 min 32 sec) 
Heartbeat CPU  0 instructions:  390000002 cycles: 1293365731 heartbeat IPC: 0.23061 cumulative IPC: 0.23646 (Simulation time: 0 hr 17 min 35 sec) 
Heartbeat CPU  0 instructions:  391000001 cycles: 1297237838 heartbeat IPC: 0.25826 cumulative IPC: 0.23653 (Simulation time: 0 hr 17 min 38 sec) 
Heartbeat CPU  0 instructions:  392000000 cycles: 1300479321 heartbeat IPC: 0.30850 cumulative IPC: 0.23672 (Simulation time: 0 hr 17 min 41 sec) 
Heartbeat CPU  0 instructions:  393000003 cycles: 1304710121 heartbeat IPC: 0.23636 cumulative IPC: 0.23671 (Simulation time: 0 hr 17 min 44 sec) 
Heartbeat CPU  0 instructions:  394000002 cycles: 1306532408 heartbeat IPC: 0.54876 cumulative IPC: 0.23717 (Simulation time: 0 hr 17 min 47 sec) 
Heartbeat CPU  0 instructions:  395000003 cycles: 1315284846 heartbeat IPC: 0.11425 cumulative IPC: 0.23631 (Simulation time: 0 hr 17 min 53 sec) 
Heartbeat CPU  0 instructions:  396000000 cycles: 1320066872 heartbeat IPC: 0.20912 cumulative IPC: 0.23621 (Simulation time: 0 hr 17 min 56 sec) 
Heartbeat CPU  0 instructions:  397000000 cycles: 1322399506 heartbeat IPC: 0.42870 cumulative IPC: 0.23656 (Simulation time: 0 hr 17 min 57 sec) 
Heartbeat CPU  0 instructions:  398000000 cycles: 1325659968 heartbeat IPC: 0.30670 cumulative IPC: 0.23675 (Simulation time: 0 hr 18 min 0 sec) 
Heartbeat CPU  0 instructions:  399000000 cycles: 1331973956 heartbeat IPC: 0.15838 cumulative IPC: 0.23636 (Simulation time: 0 hr 18 min 3 sec) 
Heartbeat CPU  0 instructions:  400000000 cycles: 1336463342 heartbeat IPC: 0.22275 cumulative IPC: 0.23631 (Simulation time: 0 hr 18 min 6 sec) 
Heartbeat CPU  0 instructions:  401000000 cycles: 1340324662 heartbeat IPC: 0.25898 cumulative IPC: 0.23638 (Simulation time: 0 hr 18 min 10 sec) 
Heartbeat CPU  0 instructions:  402000000 cycles: 1343508423 heartbeat IPC: 0.31409 cumulative IPC: 0.23657 (Simulation time: 0 hr 18 min 12 sec) 
Heartbeat CPU  0 instructions:  403000000 cycles: 1347666432 heartbeat IPC: 0.24050 cumulative IPC: 0.23658 (Simulation time: 0 hr 18 min 16 sec) 
Heartbeat CPU  0 instructions:  404000000 cycles: 1349825448 heartbeat IPC: 0.46317 cumulative IPC: 0.23696 (Simulation time: 0 hr 18 min 19 sec) 
Heartbeat CPU  0 instructions:  405000002 cycles: 1358364871 heartbeat IPC: 0.11710 cumulative IPC: 0.23617 (Simulation time: 0 hr 18 min 24 sec) 
Heartbeat CPU  0 instructions:  406000000 cycles: 1362971534 heartbeat IPC: 0.21708 cumulative IPC: 0.23610 (Simulation time: 0 hr 18 min 27 sec) 
Heartbeat CPU  0 instructions:  407000000 cycles: 1365300941 heartbeat IPC: 0.42929 cumulative IPC: 0.23645 (Simulation time: 0 hr 18 min 29 sec) 
Heartbeat CPU  0 instructions:  408000000 cycles: 1368769271 heartbeat IPC: 0.28832 cumulative IPC: 0.23659 (Simulation time: 0 hr 18 min 31 sec) 
Heartbeat CPU  0 instructions:  409000002 cycles: 1374855604 heartbeat IPC: 0.16430 cumulative IPC: 0.23625 (Simulation time: 0 hr 18 min 35 sec) 
Heartbeat CPU  0 instructions:  410000000 cycles: 1379579980 heartbeat IPC: 0.21167 cumulative IPC: 0.23616 (Simulation time: 0 hr 18 min 38 sec) 
Heartbeat CPU  0 instructions:  411000002 cycles: 1383298178 heartbeat IPC: 0.26895 cumulative IPC: 0.23626 (Simulation time: 0 hr 18 min 41 sec) 
Heartbeat CPU  0 instructions:  412000000 cycles: 1386457576 heartbeat IPC: 0.31652 cumulative IPC: 0.23645 (Simulation time: 0 hr 18 min 44 sec) 
Heartbeat CPU  0 instructions:  413000001 cycles: 1390582415 heartbeat IPC: 0.24243 cumulative IPC: 0.23647 (Simulation time: 0 hr 18 min 47 sec) 
Heartbeat CPU  0 instructions:  414000003 cycles: 1392931011 heartbeat IPC: 0.42579 cumulative IPC: 0.23680 (Simulation time: 0 hr 18 min 50 sec) 
Heartbeat CPU  0 instructions:  415000000 cycles: 1401545755 heartbeat IPC: 0.11608 cumulative IPC: 0.23602 (Simulation time: 0 hr 18 min 56 sec) 
Heartbeat CPU  0 instructions:  416000000 cycles: 1405856251 heartbeat IPC: 0.23199 cumulative IPC: 0.23601 (Simulation time: 0 hr 18 min 59 sec) 
Heartbeat CPU  0 instructions:  417000000 cycles: 1408167022 heartbeat IPC: 0.43276 cumulative IPC: 0.23635 (Simulation time: 0 hr 19 min 0 sec) 
Heartbeat CPU  0 instructions:  418000000 cycles: 1411862718 heartbeat IPC: 0.27059 cumulative IPC: 0.23644 (Simulation time: 0 hr 19 min 3 sec) 
Heartbeat CPU  0 instructions:  419000001 cycles: 1417668148 heartbeat IPC: 0.17225 cumulative IPC: 0.23617 (Simulation time: 0 hr 19 min 6 sec) 
Heartbeat CPU  0 instructions:  420000000 cycles: 1422650765 heartbeat IPC: 0.20070 cumulative IPC: 0.23604 (Simulation time: 0 hr 19 min 9 sec) 
Heartbeat CPU  0 instructions:  421000000 cycles: 1426304695 heartbeat IPC: 0.27368 cumulative IPC: 0.23614 (Simulation time: 0 hr 19 min 13 sec) 
Heartbeat CPU  0 instructions:  422000003 cycles: 1429469348 heartbeat IPC: 0.31599 cumulative IPC: 0.23632 (Simulation time: 0 hr 19 min 16 sec) 
Heartbeat CPU  0 instructions:  423000003 cycles: 1433467989 heartbeat IPC: 0.25008 cumulative IPC: 0.23636 (Simulation time: 0 hr 19 min 19 sec) 
Heartbeat CPU  0 instructions:  424000000 cycles: 1435952409 heartbeat IPC: 0.40251 cumulative IPC: 0.23667 (Simulation time: 0 hr 19 min 22 sec) 
Heartbeat CPU  0 instructions:  425000001 cycles: 1444564757 heartbeat IPC: 0.11611 cumulative IPC: 0.23591 (Simulation time: 0 hr 19 min 28 sec) 
Heartbeat CPU  0 instructions:  426000002 cycles: 1448670916 heartbeat IPC: 0.24354 cumulative IPC: 0.23593 (Simulation time: 0 hr 19 min 30 sec) 
Heartbeat CPU  0 instructions:  427000002 cycles: 1450984786 heartbeat IPC: 0.43218 cumulative IPC: 0.23626 (Simulation time: 0 hr 19 min 32 sec) 
Heartbeat CPU  0 instructions:  428000000 cycles: 1454838086 heartbeat IPC: 0.25952 cumulative IPC: 0.23633 (Simulation time: 0 hr 19 min 34 sec) 
Heartbeat CPU  0 instructions:  429000001 cycles: 1460417242 heartbeat IPC: 0.17924 cumulative IPC: 0.23610 (Simulation time: 0 hr 19 min 38 sec) 
Heartbeat CPU  0 instructions:  430000002 cycles: 1465575091 heartbeat IPC: 0.19388 cumulative IPC: 0.23594 (Simulation time: 0 hr 19 min 41 sec) 
Heartbeat CPU  0 instructions:  431000003 cycles: 1469160026 heartbeat IPC: 0.27895 cumulative IPC: 0.23605 (Simulation time: 0 hr 19 min 44 sec) 
Heartbeat CPU  0 instructions:  432000000 cycles: 1471314749 heartbeat IPC: 0.46410 cumulative IPC: 0.23640 (Simulation time: 0 hr 19 min 47 sec) 
Heartbeat CPU  0 instructions:  433000002 cycles: 1478210638 heartbeat IPC: 0.14501 cumulative IPC: 0.23596 (Simulation time: 0 hr 19 min 50 sec) 
Heartbeat CPU  0 instructions:  434000000 cycles: 1486025165 heartbeat IPC: 0.12797 cumulative IPC: 0.23536 (Simulation time: 0 hr 19 min 55 sec) 
Heartbeat CPU  0 instructions:  435000001 cycles: 1491791070 heartbeat IPC: 0.17343 cumulative IPC: 0.23511 (Simulation time: 0 hr 20 min 0 sec) 
Heartbeat CPU  0 instructions:  436000000 cycles: 1497098284 heartbeat IPC: 0.18842 cumulative IPC: 0.23494 (Simulation time: 0 hr 20 min 3 sec) 
Heartbeat CPU  0 instructions:  437000003 cycles: 1502168702 heartbeat IPC: 0.19722 cumulative IPC: 0.23480 (Simulation time: 0 hr 20 min 7 sec) 
Heartbeat CPU  0 instructions:  438000001 cycles: 1506714954 heartbeat IPC: 0.21996 cumulative IPC: 0.23476 (Simulation time: 0 hr 20 min 11 sec) 
Heartbeat CPU  0 instructions:  439000000 cycles: 1511437893 heartbeat IPC: 0.21173 cumulative IPC: 0.23468 (Simulation time: 0 hr 20 min 15 sec) 
Heartbeat CPU  0 instructions:  440000000 cycles: 1515336712 heartbeat IPC: 0.25649 cumulative IPC: 0.23474 (Simulation time: 0 hr 20 min 17 sec) 
Heartbeat CPU  0 instructions:  441000000 cycles: 1519279470 heartbeat IPC: 0.25363 cumulative IPC: 0.23479 (Simulation time: 0 hr 20 min 20 sec) 
Heartbeat CPU  0 instructions:  442000000 cycles: 1522149217 heartbeat IPC: 0.34846 cumulative IPC: 0.23502 (Simulation time: 0 hr 20 min 22 sec) 
Heartbeat CPU  0 instructions:  443000002 cycles: 1524924351 heartbeat IPC: 0.36034 cumulative IPC: 0.23525 (Simulation time: 0 hr 20 min 25 sec) 
Heartbeat CPU  0 instructions:  444000000 cycles: 1527127565 heartbeat IPC: 0.45388 cumulative IPC: 0.23558 (Simulation time: 0 hr 20 min 27 sec) 
Heartbeat CPU  0 instructions:  445000002 cycles: 1530011782 heartbeat IPC: 0.34672 cumulative IPC: 0.23580 (Simulation time: 0 hr 20 min 30 sec) 
Heartbeat CPU  0 instructions:  446000001 cycles: 1531798280 heartbeat IPC: 0.55975 cumulative IPC: 0.23620 (Simulation time: 0 hr 20 min 32 sec) 
Heartbeat CPU  0 instructions:  447000001 cycles: 1534864985 heartbeat IPC: 0.32608 cumulative IPC: 0.23639 (Simulation time: 0 hr 20 min 35 sec) 
Heartbeat CPU  0 instructions:  448000000 cycles: 1539427269 heartbeat IPC: 0.21919 cumulative IPC: 0.23633 (Simulation time: 0 hr 20 min 38 sec) 
Heartbeat CPU  0 instructions:  449000003 cycles: 1543326444 heartbeat IPC: 0.25647 cumulative IPC: 0.23639 (Simulation time: 0 hr 20 min 42 sec) 
Heartbeat CPU  0 instructions:  450000000 cycles: 1546042928 heartbeat IPC: 0.36812 cumulative IPC: 0.23663 (Simulation time: 0 hr 20 min 44 sec) 
Heartbeat CPU  0 instructions:  451000003 cycles: 1549671955 heartbeat IPC: 0.27556 cumulative IPC: 0.23672 (Simulation time: 0 hr 20 min 48 sec) 
Heartbeat CPU  0 instructions:  452000000 cycles: 1552575742 heartbeat IPC: 0.34438 cumulative IPC: 0.23693 (Simulation time: 0 hr 20 min 51 sec) 
Heartbeat CPU  0 instructions:  453000000 cycles: 1558829609 heartbeat IPC: 0.15990 cumulative IPC: 0.23661 (Simulation time: 0 hr 20 min 55 sec) 
Heartbeat CPU  0 instructions:  454000000 cycles: 1565918890 heartbeat IPC: 0.14106 cumulative IPC: 0.23616 (Simulation time: 0 hr 21 min 0 sec) 
Heartbeat CPU  0 instructions:  455000000 cycles: 1568315395 heartbeat IPC: 0.41727 cumulative IPC: 0.23645 (Simulation time: 0 hr 21 min 1 sec) 
Heartbeat CPU  0 instructions:  456000000 cycles: 1570335972 heartbeat IPC: 0.49491 cumulative IPC: 0.23680 (Simulation time: 0 hr 21 min 3 sec) 
Heartbeat CPU  0 instructions:  457000002 cycles: 1577079925 heartbeat IPC: 0.14828 cumulative IPC: 0.23640 (Simulation time: 0 hr 21 min 7 sec) 
Heartbeat CPU  0 instructions:  458000002 cycles: 1580890137 heartbeat IPC: 0.26245 cumulative IPC: 0.23647 (Simulation time: 0 hr 21 min 10 sec) 
Heartbeat CPU  0 instructions:  459000000 cycles: 1585440325 heartbeat IPC: 0.21977 cumulative IPC: 0.23642 (Simulation time: 0 hr 21 min 13 sec) 
Heartbeat CPU  0 instructions:  460000000 cycles: 1589433790 heartbeat IPC: 0.25041 cumulative IPC: 0.23645 (Simulation time: 0 hr 21 min 16 sec) 
Heartbeat CPU  0 instructions:  461000001 cycles: 1593691511 heartbeat IPC: 0.23487 cumulative IPC: 0.23645 (Simulation time: 0 hr 21 min 20 sec) 
Heartbeat CPU  0 instructions:  462000001 cycles: 1595695128 heartbeat IPC: 0.49910 cumulative IPC: 0.23679 (Simulation time: 0 hr 21 min 22 sec) 
Heartbeat CPU  0 instructions:  463000001 cycles: 1603498680 heartbeat IPC: 0.12815 cumulative IPC: 0.23624 (Simulation time: 0 hr 21 min 28 sec) 
Heartbeat CPU  0 instructions:  464000000 cycles: 1609103917 heartbeat IPC: 0.17840 cumulative IPC: 0.23603 (Simulation time: 0 hr 21 min 31 sec) 
Heartbeat CPU  0 instructions:  465000002 cycles: 1611480566 heartbeat IPC: 0.42076 cumulative IPC: 0.23631 (Simulation time: 0 hr 21 min 33 sec) 
Heartbeat CPU  0 instructions:  466000002 cycles: 1613736719 heartbeat IPC: 0.44323 cumulative IPC: 0.23662 (Simulation time: 0 hr 21 min 34 sec) 
Heartbeat CPU  0 instructions:  467000003 cycles: 1621075484 heartbeat IPC: 0.13626 cumulative IPC: 0.23614 (Simulation time: 0 hr 21 min 39 sec) 
Heartbeat CPU  0 instructions:  468000000 cycles: 1624996087 heartbeat IPC: 0.25506 cumulative IPC: 0.23619 (Simulation time: 0 hr 21 min 41 sec) 
Heartbeat CPU  0 instructions:  469000000 cycles: 1628838058 heartbeat IPC: 0.26028 cumulative IPC: 0.23625 (Simulation time: 0 hr 21 min 45 sec) 
Heartbeat CPU  0 instructions:  470000000 cycles: 1632312458 heartbeat IPC: 0.28782 cumulative IPC: 0.23636 (Simulation time: 0 hr 21 min 48 sec) 
Heartbeat CPU  0 instructions:  471000001 cycles: 1636747791 heartbeat IPC: 0.22546 cumulative IPC: 0.23633 (Simulation time: 0 hr 21 min 51 sec) 
Heartbeat CPU  0 instructions:  472000000 cycles: 1638597207 heartbeat IPC: 0.54071 cumulative IPC: 0.23669 (Simulation time: 0 hr 21 min 54 sec) 
Heartbeat CPU  0 instructions:  473000003 cycles: 1646545310 heartbeat IPC: 0.12582 cumulative IPC: 0.23613 (Simulation time: 0 hr 21 min 59 sec) 
Heartbeat CPU  0 instructions:  474000001 cycles: 1651995011 heartbeat IPC: 0.18350 cumulative IPC: 0.23595 (Simulation time: 0 hr 22 min 3 sec) 
Heartbeat CPU  0 instructions:  475000000 cycles: 1654343838 heartbeat IPC: 0.42574 cumulative IPC: 0.23623 (Simulation time: 0 hr 22 min 4 sec) 
Heartbeat CPU  0 instructions:  476000000 cycles: 1656869045 heartbeat IPC: 0.39601 cumulative IPC: 0.23649 (Simulation time: 0 hr 22 min 6 sec) 
Heartbeat CPU  0 instructions:  477000003 cycles: 1663978372 heartbeat IPC: 0.14066 cumulative IPC: 0.23606 (Simulation time: 0 hr 22 min 10 sec) 
Heartbeat CPU  0 instructions:  478000000 cycles: 1668011052 heartbeat IPC: 0.24797 cumulative IPC: 0.23609 (Simulation time: 0 hr 22 min 13 sec) 
Heartbeat CPU  0 instructions:  479000001 cycles: 1671953400 heartbeat IPC: 0.25366 cumulative IPC: 0.23613 (Simulation time: 0 hr 22 min 16 sec) 
Heartbeat CPU  0 instructions:  480000000 cycles: 1675202221 heartbeat IPC: 0.30780 cumulative IPC: 0.23628 (Simulation time: 0 hr 22 min 19 sec) 
Heartbeat CPU  0 instructions:  481000002 cycles: 1679693248 heartbeat IPC: 0.22267 cumulative IPC: 0.23624 (Simulation time: 0 hr 22 min 23 sec) 
Heartbeat CPU  0 instructions:  482000003 cycles: 1681479795 heartbeat IPC: 0.55974 cumulative IPC: 0.23660 (Simulation time: 0 hr 22 min 25 sec) 
Heartbeat CPU  0 instructions:  483000000 cycles: 1689680976 heartbeat IPC: 0.12193 cumulative IPC: 0.23602 (Simulation time: 0 hr 22 min 31 sec) 
Heartbeat CPU  0 instructions:  484000000 cycles: 1694947182 heartbeat IPC: 0.18989 cumulative IPC: 0.23587 (Simulation time: 0 hr 22 min 34 sec) 
Heartbeat CPU  0 instructions:  485000000 cycles: 1697276546 heartbeat IPC: 0.42930 cumulative IPC: 0.23615 (Simulation time: 0 hr 22 min 36 sec) 
Heartbeat CPU  0 instructions:  486000003 cycles: 1700094352 heartbeat IPC: 0.35489 cumulative IPC: 0.23635 (Simulation time: 0 hr 22 min 38 sec) 
Heartbeat CPU  0 instructions:  487000000 cycles: 1706871118 heartbeat IPC: 0.14756 cumulative IPC: 0.23598 (Simulation time: 0 hr 22 min 42 sec) 
Heartbeat CPU  0 instructions:  488000000 cycles: 1711095153 heartbeat IPC: 0.23674 cumulative IPC: 0.23599 (Simulation time: 0 hr 22 min 45 sec) 
Heartbeat CPU  0 instructions:  489000000 cycles: 1715071161 heartbeat IPC: 0.25151 cumulative IPC: 0.23602 (Simulation time: 0 hr 22 min 48 sec) 
Heartbeat CPU  0 instructions:  490000002 cycles: 1718288488 heartbeat IPC: 0.31082 cumulative IPC: 0.23617 (Simulation time: 0 hr 22 min 51 sec) 
Heartbeat CPU  0 instructions:  491000002 cycles: 1722559573 heartbeat IPC: 0.23413 cumulative IPC: 0.23616 (Simulation time: 0 hr 22 min 54 sec) 
Heartbeat CPU  0 instructions:  492000000 cycles: 1724304408 heartbeat IPC: 0.57312 cumulative IPC: 0.23652 (Simulation time: 0 hr 22 min 56 sec) 
Heartbeat CPU  0 instructions:  493000003 cycles: 1732823726 heartbeat IPC: 0.11738 cumulative IPC: 0.23591 (Simulation time: 0 hr 23 min 2 sec) 
Heartbeat CPU  0 instructions:  494000000 cycles: 1737799853 heartbeat IPC: 0.20096 cumulative IPC: 0.23581 (Simulation time: 0 hr 23 min 5 sec) 
Heartbeat CPU  0 instructions:  495000000 cycles: 1740135211 heartbeat IPC: 0.42820 cumulative IPC: 0.23607 (Simulation time: 0 hr 23 min 7 sec) 
Heartbeat CPU  0 instructions:  496000000 cycles: 1743250131 heartbeat IPC: 0.32104 cumulative IPC: 0.23623 (Simulation time: 0 hr 23 min 9 sec) 
Heartbeat CPU  0 instructions:  497000000 cycles: 1749723437 heartbeat IPC: 0.15448 cumulative IPC: 0.23592 (Simulation time: 0 hr 23 min 13 sec) 
Heartbeat CPU  0 instructions:  498000000 cycles: 1754151540 heartbeat IPC: 0.22583 cumulative IPC: 0.23589 (Simulation time: 0 hr 23 min 16 sec) 
Heartbeat CPU  0 instructions:  499000002 cycles: 1758081662 heartbeat IPC: 0.25445 cumulative IPC: 0.23593 (Simulation time: 0 hr 23 min 19 sec) 
Heartbeat CPU  0 instructions:  500000000 cycles: 1761298305 heartbeat IPC: 0.31088 cumulative IPC: 0.23608 (Simulation time: 0 hr 23 min 22 sec) 
Heartbeat CPU  0 instructions:  501000000 cycles: 1765476771 heartbeat IPC: 0.23932 cumulative IPC: 0.23608 (Simulation time: 0 hr 23 min 25 sec) 
Heartbeat CPU  0 instructions:  502000001 cycles: 1767403614 heartbeat IPC: 0.51898 cumulative IPC: 0.23640 (Simulation time: 0 hr 23 min 28 sec) 
Heartbeat CPU  0 instructions:  503000003 cycles: 1775976870 heartbeat IPC: 0.11664 cumulative IPC: 0.23580 (Simulation time: 0 hr 23 min 34 sec) 
Heartbeat CPU  0 instructions:  504000000 cycles: 1780741007 heartbeat IPC: 0.20990 cumulative IPC: 0.23573 (Simulation time: 0 hr 23 min 37 sec) 
Heartbeat CPU  0 instructions:  505000000 cycles: 1783071259 heartbeat IPC: 0.42914 cumulative IPC: 0.23599 (Simulation time: 0 hr 23 min 38 sec) 
Heartbeat CPU  0 instructions:  506000000 cycles: 1786430912 heartbeat IPC: 0.29765 cumulative IPC: 0.23612 (Simulation time: 0 hr 23 min 40 sec) 
Heartbeat CPU  0 instructions:  507000002 cycles: 1792624649 heartbeat IPC: 0.16145 cumulative IPC: 0.23585 (Simulation time: 0 hr 23 min 44 sec) 
Heartbeat CPU  0 instructions:  508000000 cycles: 1797239581 heartbeat IPC: 0.21669 cumulative IPC: 0.23580 (Simulation time: 0 hr 23 min 47 sec) 
Heartbeat CPU  0 instructions:  509000001 cycles: 1801041121 heartbeat IPC: 0.26305 cumulative IPC: 0.23586 (Simulation time: 0 hr 23 min 50 sec) 
Heartbeat CPU  0 instructions:  510000003 cycles: 1804214146 heartbeat IPC: 0.31516 cumulative IPC: 0.23600 (Simulation time: 0 hr 23 min 53 sec) 
Heartbeat CPU  0 instructions:  511000000 cycles: 1808335455 heartbeat IPC: 0.24264 cumulative IPC: 0.23602 (Simulation time: 0 hr 23 min 56 sec) 
Heartbeat CPU  0 instructions:  512000000 cycles: 1810566750 heartbeat IPC: 0.44817 cumulative IPC: 0.23629 (Simulation time: 0 hr 23 min 59 sec) 
Heartbeat CPU  0 instructions:  513000001 cycles: 1819158861 heartbeat IPC: 0.11639 cumulative IPC: 0.23570 (Simulation time: 0 hr 24 min 5 sec) 
Heartbeat CPU  0 instructions:  514000000 cycles: 1823604121 heartbeat IPC: 0.22496 cumulative IPC: 0.23567 (Simulation time: 0 hr 24 min 8 sec) 
Heartbeat CPU  0 instructions:  515000000 cycles: 1825930532 heartbeat IPC: 0.42985 cumulative IPC: 0.23593 (Simulation time: 0 hr 24 min 9 sec) 
Heartbeat CPU  0 instructions:  516000000 cycles: 1829498304 heartbeat IPC: 0.28029 cumulative IPC: 0.23602 (Simulation time: 0 hr 24 min 12 sec) 
Heartbeat CPU  0 instructions:  517000001 cycles: 1835432459 heartbeat IPC: 0.16852 cumulative IPC: 0.23579 (Simulation time: 0 hr 24 min 16 sec) 
Heartbeat CPU  0 instructions:  518000001 cycles: 1840316234 heartbeat IPC: 0.20476 cumulative IPC: 0.23571 (Simulation time: 0 hr 24 min 18 sec) 
Heartbeat CPU  0 instructions:  519000002 cycles: 1844036099 heartbeat IPC: 0.26883 cumulative IPC: 0.23578 (Simulation time: 0 hr 24 min 22 sec) 
Heartbeat CPU  0 instructions:  520000000 cycles: 1847180619 heartbeat IPC: 0.31801 cumulative IPC: 0.23592 (Simulation time: 0 hr 24 min 25 sec) 
Heartbeat CPU  0 instructions:  521000000 cycles: 1851240984 heartbeat IPC: 0.24628 cumulative IPC: 0.23595 (Simulation time: 0 hr 24 min 28 sec) 
Heartbeat CPU  0 instructions:  522000001 cycles: 1853686279 heartbeat IPC: 0.40895 cumulative IPC: 0.23618 (Simulation time: 0 hr 24 min 30 sec) 
Heartbeat CPU  0 instructions:  523000003 cycles: 1862339100 heartbeat IPC: 0.11557 cumulative IPC: 0.23560 (Simulation time: 0 hr 24 min 36 sec) 
Heartbeat CPU  0 instructions:  524000000 cycles: 1866498138 heartbeat IPC: 0.24044 cumulative IPC: 0.23561 (Simulation time: 0 hr 24 min 39 sec) 
Heartbeat CPU  0 instructions:  525000003 cycles: 1868818897 heartbeat IPC: 0.43089 cumulative IPC: 0.23586 (Simulation time: 0 hr 24 min 40 sec) 
Heartbeat CPU  0 instructions:  526000002 cycles: 1872583604 heartbeat IPC: 0.26562 cumulative IPC: 0.23593 (Simulation time: 0 hr 24 min 43 sec) 
Heartbeat CPU  0 instructions:  527000001 cycles: 1878254458 heartbeat IPC: 0.17634 cumulative IPC: 0.23574 (Simulation time: 0 hr 24 min 47 sec) 
Heartbeat CPU  0 instructions:  528000000 cycles: 1883358216 heartbeat IPC: 0.19593 cumulative IPC: 0.23563 (Simulation time: 0 hr 24 min 50 sec) 
[...]
Heartbeat CPU  0 instructions:  556000000 cycles: 2010137108 heartbeat IPC: 0.21827 cumulative IPC: 0.23466 (Simulation time: 0 hr 26 min 23 sec) 
Heartbeat CPU  0 instructions:  557000000 cycles: 2014872705 heartbeat IPC: 0.21117 cumulative IPC: 0.23461 (Simulation time: 0 hr 26 min 26 sec) 
Heartbeat CPU  0 instructions:  558000001 cycles: 2018759743 heartbeat IPC: 0.25727 cumulative IPC: 0.23465 (Simulation time: 0 hr 26 min 28 sec) 
Heartbeat CPU  0 instructions:  559000000 cycles: 2022662624 heartbeat IPC: 0.25622 cumulative IPC: 0.23469 (Simulation time: 0 hr 26 min 31 sec) 
Heartbeat CPU  0 instructions:  560000000 cycles: 2025495476 heartbeat IPC: 0.35300 cumulative IPC: 0.23487 (Simulation time: 0 hr 26 min 33 sec) 
Heartbeat CPU  0 instructions:  561000001 cycles: 2028292712 heartbeat IPC: 0.35750 cumulative IPC: 0.23504 (Simulation time: 0 hr 26 min 36 sec) 
Heartbeat CPU  0 instructions:  562000000 cycles: 2030625606 heartbeat IPC: 0.42865 cumulative IPC: 0.23527 (Simulation time: 0 hr 26 min 39 sec) 
Heartbeat CPU  0 instructions:  563000002 cycles: 2033317297 heartbeat IPC: 0.37151 cumulative IPC: 0.23546 (Simulation time: 0 hr 26 min 41 sec) 
Heartbeat CPU  0 instructions:  564000000 cycles: 2035258412 heartbeat IPC: 0.51517 cumulative IPC: 0.23573 (Simulation time: 0 hr 26 min 44 sec) 
Heartbeat CPU  0 instructions:  565000002 cycles: 2038395542 heartbeat IPC: 0.31876 cumulative IPC: 0.23587 (Simulation time: 0 hr 26 min 46 sec) 
Heartbeat CPU  0 instructions:  566000001 cycles: 2042877077 heartbeat IPC: 0.22314 cumulative IPC: 0.23584 (Simulation time: 0 hr 26 min 50 sec) 
Heartbeat CPU  0 instructions:  567000000 cycles: 2046777260 heartbeat IPC: 0.25640 cumulative IPC: 0.23588 (Simulation time: 0 hr 26 min 53 sec) 
Heartbeat CPU  0 instructions:  568000000 cycles: 2049440336 heartbeat IPC: 0.37551 cumulative IPC: 0.23606 (Simulation time: 0 hr 26 min 56 sec) 
Heartbeat CPU  0 instructions:  569000000 cycles: 2053070814 heartbeat IPC: 0.27545 cumulative IPC: 0.23614 (Simulation time: 0 hr 26 min 59 sec) 
Heartbeat CPU  0 instructions:  570000000 cycles: 2055879331 heartbeat IPC: 0.35606 cumulative IPC: 0.23631 (Simulation time: 0 hr 27 min 2 sec) 
Heartbeat CPU  0 instructions:  571000000 cycles: 2062480053 heartbeat IPC: 0.15150 cumulative IPC: 0.23603 (Simulation time: 0 hr 27 min 7 sec) 
Heartbeat CPU  0 instructions:  572000000 cycles: 2069261264 heartbeat IPC: 0.14747 cumulative IPC: 0.23573 (Simulation time: 0 hr 27 min 11 sec) 
Heartbeat CPU  0 instructions:  573000002 cycles: 2071567497 heartbeat IPC: 0.43361 cumulative IPC: 0.23595 (Simulation time: 0 hr 27 min 13 sec) 
Heartbeat CPU  0 instructions:  574000002 cycles: 2073536919 heartbeat IPC: 0.50776 cumulative IPC: 0.23622 (Simulation time: 0 hr 27 min 14 sec) 
Heartbeat CPU  0 instructions:  575000000 cycles: 2080255355 heartbeat IPC: 0.14884 cumulative IPC: 0.23593 (Simulation time: 0 hr 27 min 18 sec) 
Heartbeat CPU  0 instructions:  576000000 cycles: 2083985855 heartbeat IPC: 0.26806 cumulative IPC: 0.23599 (Simulation time: 0 hr 27 min 21 sec) 
Heartbeat CPU  0 instructions:  577000000 cycles: 2088733837 heartbeat IPC: 0.21062 cumulative IPC: 0.23593 (Simulation time: 0 hr 27 min 24 sec) 
Heartbeat CPU  0 instructions:  578000002 cycles: 2092649366 heartbeat IPC: 0.25539 cumulative IPC: 0.23597 (Simulation time: 0 hr 27 min 27 sec) 
Heartbeat CPU  0 instructions:  579000002 cycles: 2099448927 heartbeat IPC: 0.14707 cumulative IPC: 0.23567 (Simulation time: 0 hr 27 min 33 sec) 
Heartbeat CPU  0 instructions:  580000000 cycles: 2102421541 heartbeat IPC: 0.33640 cumulative IPC: 0.23582 (Simulation time: 0 hr 27 min 35 sec) 
Heartbeat CPU  0 instructions:  581000000 cycles: 2106410384 heartbeat IPC: 0.25070 cumulative IPC: 0.23584 (Simulation time: 0 hr 27 min 39 sec) 
Heartbeat CPU  0 instructions:  582000002 cycles: 2115929136 heartbeat IPC: 0.10506 cumulative IPC: 0.23524 (Simulation time: 0 hr 27 min 45 sec) 
Heartbeat CPU  0 instructions:  583000000 cycles: 2118308793 heartbeat IPC: 0.42023 cumulative IPC: 0.23545 (Simulation time: 0 hr 27 min 47 sec) 
Heartbeat CPU  0 instructions:  584000000 cycles: 2120502118 heartbeat IPC: 0.45593 cumulative IPC: 0.23569 (Simulation time: 0 hr 27 min 48 sec) 
Heartbeat CPU  0 instructions:  585000000 cycles: 2125440555 heartbeat IPC: 0.20249 cumulative IPC: 0.23561 (Simulation time: 0 hr 27 min 52 sec) 
Heartbeat CPU  0 instructions:  586000000 cycles: 2130041250 heartbeat IPC: 0.21736 cumulative IPC: 0.23557 (Simulation time: 0 hr 27 min 55 sec) 
Heartbeat CPU  0 instructions:  587000002 cycles: 2135654774 heartbeat IPC: 0.17814 cumulative IPC: 0.23541 (Simulation time: 0 hr 27 min 58 sec) 
Heartbeat CPU  0 instructions:  588000000 cycles: 2139015457 heartbeat IPC: 0.29756 cumulative IPC: 0.23551 (Simulation time: 0 hr 28 min 1 sec) 
Heartbeat CPU  0 instructions:  589000001 cycles: 2142560803 heartbeat IPC: 0.28206 cumulative IPC: 0.23559 (Simulation time: 0 hr 28 min 4 sec) 
Heartbeat CPU  0 instructions:  590000000 cycles: 2145940015 heartbeat IPC: 0.29593 cumulative IPC: 0.23569 (Simulation time: 0 hr 28 min 7 sec) 
Heartbeat CPU  0 instructions:  591000001 cycles: 2149123393 heartbeat IPC: 0.31413 cumulative IPC: 0.23581 (Simulation time: 0 hr 28 min 10 sec) 
Heartbeat CPU  0 instructions:  592000000 cycles: 2158044738 heartbeat IPC: 0.11209 cumulative IPC: 0.23528 (Simulation time: 0 hr 28 min 16 sec) 
Heartbeat CPU  0 instructions:  593000003 cycles: 2161227876 heartbeat IPC: 0.31416 cumulative IPC: 0.23540 (Simulation time: 0 hr 28 min 18 sec) 
Heartbeat CPU  0 instructions:  594000003 cycles: 2163439075 heartbeat IPC: 0.45224 cumulative IPC: 0.23563 (Simulation time: 0 hr 28 min 20 sec) 
Heartbeat CPU  0 instructions:  595000003 cycles: 2167823137 heartbeat IPC: 0.22810 cumulative IPC: 0.23561 (Simulation time: 0 hr 28 min 23 sec) 
Heartbeat CPU  0 instructions:  596000000 cycles: 2172839535 heartbeat IPC: 0.19935 cumulative IPC: 0.23553 (Simulation time: 0 hr 28 min 26 sec) 
Heartbeat CPU  0 instructions:  597000002 cycles: 2178342798 heartbeat IPC: 0.18171 cumulative IPC: 0.23539 (Simulation time: 0 hr 28 min 29 sec) 
Heartbeat CPU  0 instructions:  598000001 cycles: 2181719185 heartbeat IPC: 0.29617 cumulative IPC: 0.23548 (Simulation time: 0 hr 28 min 32 sec) 
Heartbeat CPU  0 instructions:  599000003 cycles: 2185533712 heartbeat IPC: 0.26216 cumulative IPC: 0.23553 (Simulation time: 0 hr 28 min 36 sec) 
Heartbeat CPU  0 instructions:  600000000 cycles: 2188973210 heartbeat IPC: 0.29074 cumulative IPC: 0.23562 (Simulation time: 0 hr 28 min 38 sec) 
Finished CPU 0 instructions: 500000000 cycles: 2122042837 cumulative IPC: 0.23562 (Simulation time: 0 hr 28 min 38 sec) 

ChampSim completed all CPUs

[ROI Statistics]
Core_0_instructions 500000000
Core_0_cycles 2122042837
Core_0_IPC 0.23562

Core_0_branch_prediction_accuracy 95.09196
Core_0_branch_MPKI 8.72608
Core_0_average_ROB_occupancy_at_mispredict 83.61130

Core_0_L1D_total_access 103506944
Core_0_L1D_total_hit 76978054
Core_0_L1D_total_miss 26528890
Core_0_L1D_loads 77605813
Core_0_L1D_load_hit 55016963
Core_0_L1D_load_miss 22588850
Core_0_L1D_RFOs 25901131
Core_0_L1D_RFO_hit 21961091
Core_0_L1D_RFO_miss 3940040
Core_0_L1D_prefetches 0
Core_0_L1D_prefetch_hit 0
Core_0_L1D_prefetch_miss 0
Core_0_L1D_writebacks 0
Core_0_L1D_writeback_hit 0
Core_0_L1D_writeback_miss 0
Core_0_L1D_prefetch_requested 0
Core_0_L1D_prefetch_dropped 0
Core_0_L1D_prefetch_issued 0
Core_0_L1D_prefetch_filled 0
Core_0_L1D_prefetch_useful 0
Core_0_L1D_prefetch_useless 0
Core_0_L1D_prefetch_late 0
Core_0_L1D_average_miss_latency 232.66526

Core_0_L1D_rq_access 150239358
Core_0_L1D_rq_forward 0
Core_0_L1D_rq_merged 65956216
Core_0_L1D_rq_to_cache 84282746
Core_0_L1D_rq_full 0

Core_0_L1D_wq_access 35310153
Core_0_L1D_wq_forward 396
Core_0_L1D_wq_merged 37098
Core_0_L1D_wq_to_cache 35273055
Core_0_L1D_wq_full 39439091

Core_0_L1D_pq_access 0
Core_0_L1D_pq_forward 0
Core_0_L1D_pq_merged 0
Core_0_L1D_pq_to_cache 0
Core_0_L1D_pq_full 0

Core_0_L1D_acc_epochs 2088211
Core_0_L1D_acc_level_0 2088211
Core_0_L1D_acc_level_1 0
Core_0_L1D_acc_level_2 0
Core_0_L1D_acc_level_3 0
Core_0_L1D_acc_level_4 0
Core_0_L1D_acc_level_5 0
Core_0_L1D_acc_level_6 0
Core_0_L1D_acc_level_7 0
Core_0_L1D_acc_level_8 0
Core_0_L1D_acc_level_9 0

Core_0_L1I_total_access 104492502
Core_0_L1I_total_hit 104489304
Core_0_L1I_total_miss 3198
Core_0_L1I_loads 104492502
Core_0_L1I_load_hit 104489304
Core_0_L1I_load_miss 3198
Core_0_L1I_RFOs 0
Core_0_L1I_RFO_hit 0
Core_0_L1I_RFO_miss 0
Core_0_L1I_prefetches 0
Core_0_L1I_prefetch_hit 0
Core_0_L1I_prefetch_miss 0
Core_0_L1I_writebacks 0
Core_0_L1I_writeback_hit 0
Core_0_L1I_writeback_miss 0
Core_0_L1I_prefetch_requested 0
Core_0_L1I_prefetch_dropped 0
Core_0_L1I_prefetch_issued 0
Core_0_L1I_prefetch_filled 0
Core_0_L1I_prefetch_useful 0
Core_0_L1I_prefetch_useless 0
Core_0_L1I_prefetch_late 0
Core_0_L1I_average_miss_latency 596.41495

Core_0_L1I_rq_access 500000000
Core_0_L1I_rq_forward 0
Core_0_L1I_rq_merged 395504560
Core_0_L1I_rq_to_cache 104495440
Core_0_L1I_rq_full 0

Core_0_L1I_wq_access 0
Core_0_L1I_wq_forward 0
Core_0_L1I_wq_merged 0
Core_0_L1I_wq_to_cache 0
Core_0_L1I_wq_full 0

Core_0_L1I_pq_access 0
Core_0_L1I_pq_forward 0
Core_0_L1I_pq_merged 0
Core_0_L1I_pq_to_cache 0
Core_0_L1I_pq_full 0

Core_0_L1I_acc_epochs 2088211
Core_0_L1I_acc_level_0 2088211
Core_0_L1I_acc_level_1 0
Core_0_L1I_acc_level_2 0
Core_0_L1I_acc_level_3 0
Core_0_L1I_acc_level_4 0
Core_0_L1I_acc_level_5 0
Core_0_L1I_acc_level_6 0
Core_0_L1I_acc_level_7 0
Core_0_L1I_acc_level_8 0
Core_0_L1I_acc_level_9 0

Core_0_L2C_total_access 42392306
Core_0_L2C_total_hit 19080672
Core_0_L2C_total_miss 23311634
Core_0_L2C_loads 22589842
Core_0_L2C_load_hit 7617194
Core_0_L2C_load_miss 14972648
Core_0_L2C_RFOs 3939680
Core_0_L2C_RFO_hit 501902
Core_0_L2C_RFO_miss 3437778
Core_0_L2C_prefetches 4920760
Core_0_L2C_prefetch_hit 20737
Core_0_L2C_prefetch_miss 4900023
Core_0_L2C_writebacks 10942024
Core_0_L2C_writeback_hit 10940839
Core_0_L2C_writeback_miss 1185
Core_0_L2C_prefetch_requested 23342742
Core_0_L2C_prefetch_dropped 0
Core_0_L2C_prefetch_issued 23342742
Core_0_L2C_prefetch_filled 6052331
Core_0_L2C_prefetch_useful 4235918
Core_0_L2C_prefetch_useless 1816413
Core_0_L2C_prefetch_late 383586
Core_0_L2C_average_miss_latency 306.93460

Core_0_L2C_rq_access 26532088
Core_0_L2C_rq_forward 0
Core_0_L2C_rq_merged 0
Core_0_L2C_rq_to_cache 26529522
Core_0_L2C_rq_full 0

Core_0_L2C_wq_access 10942024
Core_0_L2C_wq_forward 2567
Core_0_L2C_wq_merged 0
Core_0_L2C_wq_to_cache 10942024
Core_0_L2C_wq_full 0

Core_0_L2C_pq_access 23342742
Core_0_L2C_pq_forward 0
Core_0_L2C_pq_merged 188943
Core_0_L2C_pq_to_cache 23153798
Core_0_L2C_pq_full 0

Core_0_L2C_acc_epochs 2088211
Core_0_L2C_acc_level_0 1202938
Core_0_L2C_acc_level_1 89148
Core_0_L2C_acc_level_2 93069
Core_0_L2C_acc_level_3 89969
Core_0_L2C_acc_level_4 82062
Core_0_L2C_acc_level_5 104770
Core_0_L2C_acc_level_6 96673
Core_0_L2C_acc_level_7 88287
Core_0_L2C_acc_level_8 73301
Core_0_L2C_acc_level_9 167994

Core_0_LLC_total_access 43953090
Core_0_LLC_total_hit 19958791
Core_0_LLC_total_miss 23994299
Core_0_LLC_loads 14594582
Core_0_LLC_load_hit 8928921
Core_0_LLC_load_miss 5665661
Core_0_LLC_RFOs 3437643
Core_0_LLC_RFO_hit 803771
Core_0_LLC_RFO_miss 2633872
Core_0_LLC_prefetches 17779428
Core_0_LLC_prefetch_hit 4645808
Core_0_LLC_prefetch_miss 13133620
Core_0_LLC_writebacks 8141437
Core_0_LLC_writeback_hit 5580291
Core_0_LLC_writeback_miss 2561146
Core_0_LLC_prefetch_requested 0
Core_0_LLC_prefetch_dropped 0
Core_0_LLC_prefetch_issued 0
Core_0_LLC_prefetch_filled 16079223
Core_0_LLC_prefetch_useful 5309245
Core_0_LLC_prefetch_useless 10755496
Core_0_LLC_prefetch_late 239010
Core_0_LLC_average_miss_latency 672.55156

Core_0_LLC_rq_access 18032340
Core_0_LLC_rq_forward 0
Core_0_LLC_rq_merged 0
Core_0_LLC_rq_to_cache 18032225
Core_0_LLC_rq_full 0

Core_0_LLC_wq_access 8141437
Core_0_LLC_wq_forward 164
Core_0_LLC_wq_merged 0
Core_0_LLC_wq_to_cache 8141437
Core_0_LLC_wq_full 0

Core_0_LLC_pq_access 22296793
Core_0_LLC_pq_forward 0
Core_0_LLC_pq_merged 23843
Core_0_LLC_pq_to_cache 22272901
Core_0_LLC_pq_full 0

Core_0_LLC_acc_epochs 2137670
Core_0_LLC_acc_level_0 1022228
Core_0_LLC_acc_level_1 223719
Core_0_LLC_acc_level_2 171813
Core_0_LLC_acc_level_3 130380
Core_0_LLC_acc_level_4 99990
Core_0_LLC_acc_level_5 95028
Core_0_LLC_acc_level_6 65529
Core_0_LLC_acc_level_7 52362
Core_0_LLC_acc_level_8 40957
Core_0_LLC_acc_level_9 235664

Core_0_major_page_fault 0
Core_0_minor_page_fault 12989

[MLOP] History of tracked zone:
IIIIIIIIIIIIIIIIIIIIIIIIIIIIIIIIIIIIIIIIIIIIIIIIIIIIIIIIIIIIIIII
IIIIIIIIIIIIIIIIIIIIIIIIIIAIIIIIIIIIIIIIIIIIIIIIIIIIIIIIIIIIIIII
IIIIIIIIIIIIIIIIIIIIIIIIIIAIIIIIIIIIIAIIIIIIIIIIIIIIIIIIIIIIIIII
IIIIIIIIIIIIIIAIIIIIIIIIIIAIIIIIIIIIIAIIIIIIIIIIIIIIIIIIIIIIIIII
IIIIIIIAIIIIIIAIIIIIIIIIIIAIIIIIIIIIIAIIIIIIIIIIIIIIIIIIIIIIIIII
IIIIIIIAIIIIIIAIIIIIIIIIIIAAIIIIIIIIIAIIIIIIIIIIIIIIIIIIIIIIIIII
IIIIIIIAIIIIIIAAIIIIIIIIIIAAIIIIIIIIIAIIIIIIIIIIIIIIIIIIIIIIIIII
IIIIIIIAIIIIIIAAIIIIIIIIIIAAAIIIIIIIIAIIIIIIIIIIIIIIIIIIIIIIIIII
IIIIIIIAIIIIIIAAIIIIAIIIIIAAAIIIIIIIIAIIIIIIIIIIIIIIIIIIIIIIIIII
IIIIIIIAIIIIIIAAAIIIAIIIIIAAAIIIIIIIIAIIIIIIIIIIIIIIIIIIIIIIIIII
IIIIAIIAIIIIIIAAAIIIAIIIIIAAAIIIIIIIIAIIIIIIIIIIIIIIIIIIIIIIIIII
IIIIAIIAIIIIIIAAAIIIAIIIIIAAAAIIIIIIIAIIIIIIIIIIIIIIIIIIIIIIIIII
IIIIAIIAIIIIIIAAAIIIAIIIIIAAAAIIIIIIIAAIIIIIIIIIIIIIIIIIIIIIIIII
IIIIAIIAIIIIIIAAAAIIAIIIIIAAAAIIIIIIIAAIIIIIIIIIIIIIIIIIIIIIIIII
IIIAAIIAIIIIIIAAAAIIAIIIIIAAAAIIIIIIIAAIIIIIIIIIIIIIIIIIIIIIIIII
IIIAAIIAIAIIIIAAAAIIAIIIIIAAAAIIIIIIIAAIIIIIIIIIIIIIIIIIIIIIIIII
IIIAAIIAAAIIIIAAAAIIAIIIIIAAAAIIIIIIIAAIIIIIIIIIIIIIIIIIIIIIIIII
IIIAAIIAAAA4IIAAAAIIAIIIIIAAAAIIIIIIIAAIIIIIIIIIIIIIIIIIIIIIIIII
IIIAAIIAAAAA4IAAAAIIAIIIIIAAAAIIIIIIIAAIIIIIIIIIIIIIIIIIIIIIIIII
IIIAAIIAAAAA4IAAAAIIAIA4IIAAAAIIIIIIIAAIIIIIIIIIIIIIIIIIIIIIIIII
IIIAAIIAAAAA4AAAAAIIAIA4IIAAAAIIIIIIIAAIIIIIIIIIIIIIIIIIIIIIIIII
IIIAAIIAAAAA4AAAAAIIAIA4IIAAAAIIIIIIIAAIIIIIIIIIIA4IIIIIIIIIIIII
A4IAAIIAAAAA4AAAAAIIAIA4IIAAAAIIIIIIIAAIIIIIIIIIIA4IIIIIIIIIIIII
AA4AAIIAAAAA4AAAAAIIAIA4IIAAAAIIIIIIIAAIIIIIIIIIIA4IIIIIIIIIIIII
AAAAAIIAAAAA4AAAAAIIAIA4IIAAAAIIIIIIIAAIIIIIIIIIIA4IIIIIIIIIIIII
AAAAA4IAAAAA4AAAAAIIAIA4IIAAAAIIIIIIIAAIIIIIIIIIIA4IIIIIIIIIIIII
AAAAAA4AAAAA4AAAAAIIAIA4IIAAAAIIIIIIIAAIIIIIIIIIIA4IIIIIIIIIIIII
AAAAAAAAAAAA4AAAAAIIAIA4IIAAAAIIIIIIIAAIIIIIIIIIIA4IIIIIIIIIIIII
AAAAAAAAAAAA4AAAAAIIAIAA4IAAAAIIIIIIIAAIIIIIIIIIIA4IIIIIIIIIIIII
AAAAAAAAAAAAAAAAAAIIAIAA4IAAAAIIIIIIIAAIIIIIIIIIIA4IIIIIIIIIIIII
AAAAAAAAAAAAAAAAAAIAAIAA4IAAAAIIIIIIIAAIIIIIIIIIIA4IIIIIIIIIIIII
AAAAAAAAAAAAAAAAAAAAAIAA4IAAAAIIIIIIIAAIIIIIIIIIIA4IIIIIIIIIIIII
AAAAAAAAAAAAAAAAAAAAA4AA4IAAAAIIIIIIIAAIIIIIIIIIIA4IIIIIIIIIIIII
AAAAAAAAAAAAAAAAAAAAA4AA4IAAAAIIIIA4IAAIIIIIIIIIIA4IIIIIIIIIIIII
AAAAAAAAAAAAAAAAAAAAAAAA4IAAAAIIIIA4IAAIIIIIIIIIIA4IIIIIIIIIIIII
AAAAAAAAAAAAAAAAAAAAAAAA4AAAAAIIIIA4IAAIIIIIIIIIIA4IIIIIIIIIIIII
AAAAAAAAAAAAAAAAAAAAAAAAAAAAAAIIIIA4IAAIIIIIIIIIIA4IIIIIIIIIIIII
AAAAAAAAAAAAAAAAAAAAAAAAAAAAAAA4IIA4IAAIIIIIIIIIIA4IIIIIIIIIIIII
AAAAAAAAAAAAAAAAAAAAAAAAAAAAAAAA4IA4IAAIIIIIIIIIIA4IIIIIIIIIIIII
AAAAAAAAAAAAAAAAAAAAAAAAAAAAAAAAA4A4IAAIIIIIIIIIIA4IIIIIIIIIIIII
AAAAAAAAAAAAAAAAAAAAAAAAAAAAAAAAA4A4AAAIIIIIIIIIIA4IIIIIIIIIIIII
AAAAAAAAAAAAAAAAAAAAAAAAAAAAAAAAAAA4AAAIIIIIIIIIIA4IIIIIIIIIIIII
AAAAAAAAAAAAAAAAAAAAAAAAAAAAAAAAAAAAAAAIIIIIIIIIIA4IIIIIIIIIIIII
AAAAAAAAAAAAAAAAAAAAAAAAAAAAAAAAAAAAAAAA4IIIIIIIIA4IIIIIIIIIIIII
AAAAAAAAAAAAAAAAAAAAAAAAAAAAAAAAAAAAAAAAA4IIIIIIIA4IIIIIIIIIIIII
AAAAAAAAAAAAAAAAAAAAAAAAAAAAAAAAAAAAAAAAA4IIIIA4IA4IIIIIIIIIIIII
AAAAAAAAAAAAAAAAAAAAAAAAAAAAAAAAAAAAAAAAA4IIIIA4IA4IIIIIIIIIIAI4
AAAAAAAAAAAAAAAAAAAAAAAAAAAAAAAAAAAAAAAAA4IIIIAAIA4II444I4IIIAI4
AAAAAAAAAAAAAAAAAAAAAAAAAAAAAAAAAAAAAAAAA4IIIIAAAA4II444444IIAI4
AAAAAAAAAAAAAAAAAAAAAAAAAAAAAAAAAAAAAAAAA4AI4IAAAA4I4444444IIAI4
AAAAAAAAAAAAAAAAAAAAAAAAAAAAAAAAAAAAAAAAAAA44IAAAA444444444IIAI4
AAAAAAAAAAAAAAAAAAAAAAAAAAAAAAAAAAAAAAAAAAA44IAAAA4444444444IAI4
AAAAAAAAAAAAAAAAAAAAAAAAAAAAAAAAAAAAAAAAAAA44IAAAA4A44444444IAI4
AAAAAAAAAAAAAAAAAAAAAAAAAAAAAAAAAAAAAAAAAAA44IAAAA4A4A4444444AI4
AAAAAAAAAAAAAAAAAAAAAAAAAAAAAAAAAAAAAAAAAAA44IAAAA4AAA4444444A44
AAAAAAAAAAAAAAAAAAAAAAAAAAAAAAAAAAAAAAAAAAA4AIAAAA4AAA4444444A44
AAAAAAAAAAAAAAAAAAAAAAAAAAAAAAAAAAAAAAAAAAAAA4AAAA4AAA4444444A44
AAAAAAAAAAAAAAAAAAAAAAAAAAAAAAAAAAAAAAAAAAAAA4AAAA4AAAA444444A44
AAAAAAAAAAAAAAAAAAAAAAAAAAAAAAAAAAAAAAAAAAAAA4AAAAAAAAA444444A44
AAAAAAAAAAAAAAAAAAAAAAAAAAAAAAAAAAAAAAAAAAAAA4AAAAAAAAAA44444A44
AAAAAAAAAAAAAAAAAAAAAAAAAAAAAAAAAAAAAAAAAAAAA4AAAAAAAAAAA4444A44
AAAAAAAAAAAAAAAAAAAAAAAAAAAAAAAAAAAAAAAAAAAAA4AAAAAAAAAAAA444A44
AAAAAAAAAAAAAAAAAAAAAAAAAAAAAAAAAAAAAAAAAAAAA4AAAAAAAAAAAA44AA44
AAAAAAAAAAAAAAAAAAAAAAAAAAAAAAAAAAAAAAAAAAAAA4AAAAAAAAAAAA44AAA4
AAAAAAAAAAAAAAAAAAAAAAAAAAAAAAAAAAAAAAAAAAAAA4AAAAAAAAAAAA4AAAA4
AAAAAAAAAAAAAAAAAAAAAAAAAAAAAAAAAAAAAAAAAAAAA4AAAAAAAAAAAA4AAAAA
AAAAAAAAAAAAAAAAAAAAAAAAAAAAAAAAAAAAAAAAAAAAA4AAAAAAAAAAAAAAAAAA
AAAAAAAAAAAAAAAAAAAAAAAAAAAAAAAAAAAAAAAAAAAAAAAAAAAAAAAAAAAAAAAA
AAAAAAAAAAAAAAAAAAAAAAAAAAAIAAAAAAAAAAAAAAAAAAAAAAAAAAAAAAAAAAAA
AAAAAAAAAAAAAAAAAAAAAAAAAAAIAAAIAAAAAAAAAAAAAAAAAAAAAAAAAAAAAAAA
AAAAAAAAAAAAAAAAAAAAAAAAAAAIAAAIAAAAAAAAAAAAAAAAAAAAAAAAAAIAAAAA
AAAAAAAAAAAAAAAAAAAAAAAAAAA4AAAIAAAAAAAAAAAAAAAAAAAAAAAAAAIAAAAA
AAAAAAAAAAAAAAAAAAAAAAAAAAA4AAA4AAAAAAAAAAAAAAAAAAAAAAAAAAIAAAAA
AAAAAAAAAAAAAAAAAAAAAAAAAAA2AAA4AAAAAAAAAAAAAAAAAAAAAAAAAAIAAAAA
AAAAAAAAAAAAAAAAAAAAAAAAAAA2AAA2AAAAAAAAAAAAAAAAAAAAAAAAAAIAAAAA
AAAAAAAAAAAAAAAAAAAAAAAAAAAAAAA2AAAAAAAAAAAAAAAAAAAAAAAAAAIAAAAA
AAAAAAAAAAAAAAAAAAAAAAAAAAAAAAA2AAAAAAAAAAAAAAAAAAAAAAAAAA4AAAAA
AAAAAAAAAAAAAAAAAAAAAAAAAAAAAAA2AAAAAAAAAAAAAAAAAAAAAAAAAA2AAAAA
AAAAAAAAAAAAAAAAAAAAAAAAAAAAAAA2AAAAAAAAAAAAAAAAAAAAAAAAAAAAAAAA
AAAAAAAAAAAAAAAAAAAAAAAAAAAAAAA2AAAAAAAAAAAAAAAAAAIAAAAAAAAAAAAA
AAAAAAAAAAAAAAAAIAAAAAAAAAAAAAA2AAAAAAAAAAAAAAAAAAIAAAAAAAAAAAAA
AAAAAAAAAAAAAAAAIAAAAAAAAAAAAAAIAAAAAAAAAAAAAAAAAAIAAAAAAAAAAAAA
AAAAAAAAAAAAAAAAIAAAAAAAAAAAAAAIAAAAAAAAAAAAAAIAAAIAAAAAAAAAAAAA
AAAAAAAAAIAAAAAAIAAAAAAAAAAAAAAIAAAAAAAAAAAAAAIAAAIAAAAAAAAAAAAA
AAAAAAAAAIAAAAAAIAAAAAAAAAAAAAAIAAAAAAAAAAAAAAIAIAIAAAAAAAAAAAAA
AAAAAAAAAIAAAAAAIAAAAAAAAAAAAAAIAAAAAAAAAAAAAAIAIAIAIAAAAAAAAAAA
AAAAAAAAAIAAAAAAIIAAAAAAAAAAAAAIAAAAAAAAAAAAAAIAIAIAIAAAAAAAAAAA
AAAAAAAAAIAAAAAAIIAAAAAAAAAAAAAIAAAIAAAAAAAAAAIAIAIAIAAAAAAAAAAA
AAAAAAAAAIAAAAAAIAAAAAAAAAAAAAAIAAAIAAAAAAAAAAIAIAIAIAAAAAAAAAAA
AAAAAAAAAIAAAAAAIAAAAAAAAAAAAAAIAAAIAAAAAAAAAAIAIAIA4AAAAAAAAAAA
AAAAAAAAAIAAAAAA4AAAAAAAAAAAAAAIAAAIAAAAAAAAAAIAIAIA4AAAAAAAAAAA
AAAAAAAAAIAAAAAA2AAAAAAAAAAAAAAIAAAIAAAAAAAAAAIAIAIA4AAAAAAAAAAA
AAIAAAAAAIAAAAAA2AAAAAAAAAAAAAAIAAAIAAAAAAAAAAIAIAIA4AAAAAAAAAAA
AAIAAAAAAIAAAAAA2AAAAAAAAAAAAAAIAAAIAAAAAAAAAA4AIAIA4AAAAAAAAAAA
AAIAAAAAAIAAAAAA2AAAAAAAAAAAAAAIAAA2AAAAAAAAAA4AIAIA4AAAAAAAAAAA
AAIAAAAAAIAAAAAA2AAAAAAAAAAAAAAIAAA2AAAAAAAAAA4AAA4A4AAAAAAAAAAA
AAIAAAAAAIAAAAAA2AAAAAAAAAAAAAAIAAA2AAAIAAAAAA4AAA4A4AAAAAAAAAAA
AAIAAAAAAIAAAAAA2AAAAAAAAAAAAAAIAAA2AAAIAAAAAA4AAA4AAAAAAAAAAAAA
AAIAAAAAAIAAAAAA2AAAAAAAAAAAAAAIAAA2AAAIAAAAAA2AAA4AAAAAAAAAAAAA
AAIAAAAAAIAAAAAA2AAAAAAAAAAAAAAIAAA2AAAIAAAAAAAAAA4AAAAAAAAAAAAA
AAIAAAAAAIAAAAAA2AAAAAAAAAAAAAA2AAA2AAAIAAAAAAAAAA4AAAAAAAAAAAAA
AAIAAAAAAIAAAAAA2AAAAAAAAAAAAAA2AAA2AAAIAAAAAAAAAA4AIAAAAAAAAAAA
AAIAAAAAAIAAAAAA2AAAAAAAAAAAAAA2AAA2AAAIAAAAAAAIAA4AIAAAAAAAAAAA
IIIIIIIIIIIIIIIIIIIIIIIIIIIIIIIIIIIIIIIIIIIIIIIIIIIIIIIIIIIIIIII
[MLOP] Prefetch Degree Mean: 8.87292
[MLOP] Prefetch Degree SD: 4.50860
[MLOP] Max Score Left Mean (%): 34.85107
[MLOP] Max Score Left SD (%): 17.98921
[MLOP] Max Score Right Mean (%): 73.65809
[MLOP] Max Score Right SD (%): 15.31792

Channel_0_RQ_row_buffer_hit 8274473
Channel_0_RQ_row_buffer_miss 13153763
Channel_0_WQ_row_buffer_hit 1134774
Channel_0_WQ_row_buffer_miss 4066552
Channel_0_WQ_full 488
Channel_0_dbus_congested 22775391

avg_congested_cycle 49

DRAM_bw_pochs 8550677
DRAM_bw_level_0 2732194
DRAM_bw_level_1 1022719
DRAM_bw_level_2 869369
DRAM_bw_level_3 3926395
