*************************************************
   ChampSim Multicore Out-of-Order Simulator
   Last compiled: Dec 11 2024 17:59:53
*************************************************
parsing config file: /home/functionmain/桌面/Pythia/config/bingo.ini

trace_0 /home/functionmain/桌面/Pythia/traces/450.soplex-247B.champsimtrace.xz
adding L2C_PREFETCHER: Bingo
Initialize SHIP state
warmup_instructions 100000000
simulation_instructions 500000000
champsim_seed 223
measure_ipc 0
measure_ipc_epoch 1000
measure_dram_bw 1
measure_dram_bw_epoch 256
measure_cache_acc 1
measure_cache_acc_epoch 1024
l1d_perfect 0
l2c_perfect 0
llc_perfect 0
l1d_semi_perfect 0
l2c_semi_perfect 0
llc_semi_perfect 0
semi_perfect_cache_page_buffer_size 64

num_cpus 1
cpu_freq 4000
dram_io_freq 2400
page_size 4096
block_size 64
max_read_per_cycle 8
max_fill_per_cycle 1
dram_channels 1
log2_dram_channels 0
dram_ranks 1
dram_banks 8
dram_rows 65536
dram_columns 128
dram_row_size 8
dram_size 4096
dram_pages 1048576

fetch_width 6
decode_width 6
exec_width 4
lq_width 2
sq_width 2
retire_width 4
scheduler_size 128
branch_mispredict_penalty 20
rob_size 256
lq_size 72
sq_size 56
num_instr_destinations_sparc 4
num_instr_destinations 2
num_instr_sources 4

itlb_set 16
itlb_way 8
itlb_rq_size 16
itlb_wq_size 16
itlb_pq_size 0
itlb_mshr_size 8
itlb_latency 1

dtlb_set 16
dtlb_way 4
dtlb_rq_size 16
dtlb_wq_size 16
dtlb_pq_size 0
dtlb_mshr_size 8
dtlb_latency 1

stlb_set 128
stlb_way 12
stlb_rq_size 32
stlb_wq_size 32
stlb_pq_size 0
stlb_mshr_size 16
stlb_latency 8

l1i_size 32
l1i_set 64
l1i_way 8
l1i_rq_size 64
l1i_wq_size 64
l1i_pq_size 8
l1i_mshr_size 8
l1i_latency 1

l1d_size 32
l1d_set 64
l1d_way 8
l1d_rq_size 64
l1d_wq_size 64
l1d_pq_size 8
l1d_mshr_size 16
l1d_latency 4

l2c_size 256
l2c_set 512
l2c_way 8
l2c_rq_size 32
l2c_wq_size 32
l2c_pq_size 32
l2c_mshr_size 32
l2c_latency 10

llc_size 2048
llc_set 2048
llc_way 16
llc_rq_size 32
llc_wq_size 32
llc_pq_size 32
llc_mshr_size 64
llc_latency 20

dram_channel_width 8
dram_wq_size 64
dram_rq_size 64
tRP 15
tRCD 15
tCAS 12.5
dram_dbus_turn_around_time 30
dram_write_high_wm 56
dram_write_low_wm 48
min_dram_writes_per_switch 16
dram_mtps 2400
dram_dbus_return_time 13

bingo_region_size 2048
bingo_pattern_len 32
bingo_pc_width 16
bingo_min_addr_width 5
bingo_max_addr_width 16
bingo_ft_size 64
bingo_at_size 128
bingo_pht_size 4096
bingo_pht_ways 16
bingo_pf_streamer_size 128
bingo_debug_level 0
bingo_l1d_thresh 1.01
bingo_l2c_thresh 0.8
bingo_llc_thresh 0.05
bingo_pc_address_fill_level L2


Heartbeat CPU  0 instructions:    1000002 cycles:     757576 heartbeat IPC: 1.32000 cumulative IPC: 1.32000 (Simulation time: 0 hr 0 min 1 sec) 
Heartbeat CPU  0 instructions:    2000001 cycles:    1400497 heartbeat IPC: 1.55540 cumulative IPC: 1.42807 (Simulation time: 0 hr 0 min 3 sec) 
Heartbeat CPU  0 instructions:    3000001 cycles:    2125608 heartbeat IPC: 1.37910 cumulative IPC: 1.41136 (Simulation time: 0 hr 0 min 5 sec) 
Heartbeat CPU  0 instructions:    4000000 cycles:    2666661 heartbeat IPC: 1.84825 cumulative IPC: 1.50000 (Simulation time: 0 hr 0 min 7 sec) 
Heartbeat CPU  0 instructions:    5000000 cycles:    3572950 heartbeat IPC: 1.10340 cumulative IPC: 1.39940 (Simulation time: 0 hr 0 min 9 sec) 
Heartbeat CPU  0 instructions:    6000001 cycles:    4464275 heartbeat IPC: 1.12193 cumulative IPC: 1.34400 (Simulation time: 0 hr 0 min 11 sec) 
Heartbeat CPU  0 instructions:    7000000 cycles:    5262918 heartbeat IPC: 1.25212 cumulative IPC: 1.33006 (Simulation time: 0 hr 0 min 12 sec) 
Heartbeat CPU  0 instructions:    8000000 cycles:    5954641 heartbeat IPC: 1.44567 cumulative IPC: 1.34349 (Simulation time: 0 hr 0 min 14 sec) 
Heartbeat CPU  0 instructions:    9000001 cycles:    6571393 heartbeat IPC: 1.62140 cumulative IPC: 1.36957 (Simulation time: 0 hr 0 min 16 sec) 
Heartbeat CPU  0 instructions:   10000000 cycles:    7115118 heartbeat IPC: 1.83916 cumulative IPC: 1.40546 (Simulation time: 0 hr 0 min 17 sec) 
Heartbeat CPU  0 instructions:   11000001 cycles:    7707225 heartbeat IPC: 1.68889 cumulative IPC: 1.42723 (Simulation time: 0 hr 0 min 19 sec) 
Heartbeat CPU  0 instructions:   12000000 cycles:    8384205 heartbeat IPC: 1.47715 cumulative IPC: 1.43126 (Simulation time: 0 hr 0 min 20 sec) 
Heartbeat CPU  0 instructions:   13000000 cycles:    9264733 heartbeat IPC: 1.13568 cumulative IPC: 1.40317 (Simulation time: 0 hr 0 min 21 sec) 
Heartbeat CPU  0 instructions:   14000002 cycles:   10012534 heartbeat IPC: 1.33726 cumulative IPC: 1.39825 (Simulation time: 0 hr 0 min 22 sec) 
Heartbeat CPU  0 instructions:   15000002 cycles:   10614380 heartbeat IPC: 1.66155 cumulative IPC: 1.41318 (Simulation time: 0 hr 0 min 24 sec) 
Heartbeat CPU  0 instructions:   16000000 cycles:   11140757 heartbeat IPC: 1.89978 cumulative IPC: 1.43617 (Simulation time: 0 hr 0 min 25 sec) 
Heartbeat CPU  0 instructions:   17000000 cycles:   11953169 heartbeat IPC: 1.23090 cumulative IPC: 1.42222 (Simulation time: 0 hr 0 min 27 sec) 
Heartbeat CPU  0 instructions:   18000001 cycles:   12558139 heartbeat IPC: 1.65298 cumulative IPC: 1.43333 (Simulation time: 0 hr 0 min 29 sec) 
Heartbeat CPU  0 instructions:   19000001 cycles:   13095620 heartbeat IPC: 1.86053 cumulative IPC: 1.45087 (Simulation time: 0 hr 0 min 30 sec) 
Heartbeat CPU  0 instructions:   20000000 cycles:   13691553 heartbeat IPC: 1.67804 cumulative IPC: 1.46075 (Simulation time: 0 hr 0 min 32 sec) 
Heartbeat CPU  0 instructions:   21000001 cycles:   14349683 heartbeat IPC: 1.51946 cumulative IPC: 1.46345 (Simulation time: 0 hr 0 min 34 sec) 
Heartbeat CPU  0 instructions:   22000003 cycles:   15228483 heartbeat IPC: 1.13792 cumulative IPC: 1.44466 (Simulation time: 0 hr 0 min 35 sec) 
Heartbeat CPU  0 instructions:   23000001 cycles:   15994815 heartbeat IPC: 1.30491 cumulative IPC: 1.43797 (Simulation time: 0 hr 0 min 36 sec) 
Heartbeat CPU  0 instructions:   24000000 cycles:   16593412 heartbeat IPC: 1.67057 cumulative IPC: 1.44636 (Simulation time: 0 hr 0 min 37 sec) 
Heartbeat CPU  0 instructions:   25000000 cycles:   17133786 heartbeat IPC: 1.85057 cumulative IPC: 1.45911 (Simulation time: 0 hr 0 min 39 sec) 
Heartbeat CPU  0 instructions:   26000001 cycles:   17932440 heartbeat IPC: 1.25211 cumulative IPC: 1.44989 (Simulation time: 0 hr 0 min 41 sec) 
Heartbeat CPU  0 instructions:   27000003 cycles:   18507054 heartbeat IPC: 1.74030 cumulative IPC: 1.45890 (Simulation time: 0 hr 0 min 43 sec) 
Heartbeat CPU  0 instructions:   28000000 cycles:   19062741 heartbeat IPC: 1.79957 cumulative IPC: 1.46883 (Simulation time: 0 hr 0 min 44 sec) 
Heartbeat CPU  0 instructions:   29000002 cycles:   19618751 heartbeat IPC: 1.79853 cumulative IPC: 1.47818 (Simulation time: 0 hr 0 min 45 sec) 
Heartbeat CPU  0 instructions:   30000001 cycles:   20203847 heartbeat IPC: 1.70912 cumulative IPC: 1.48487 (Simulation time: 0 hr 0 min 47 sec) 
Heartbeat CPU  0 instructions:   31000002 cycles:   21073672 heartbeat IPC: 1.14966 cumulative IPC: 1.47103 (Simulation time: 0 hr 0 min 48 sec) 
Heartbeat CPU  0 instructions:   32000000 cycles:   21893954 heartbeat IPC: 1.21909 cumulative IPC: 1.46159 (Simulation time: 0 hr 0 min 49 sec) 
Heartbeat CPU  0 instructions:   33000000 cycles:   22492671 heartbeat IPC: 1.67024 cumulative IPC: 1.46714 (Simulation time: 0 hr 0 min 51 sec) 
Heartbeat CPU  0 instructions:   34000000 cycles:   23107302 heartbeat IPC: 1.62699 cumulative IPC: 1.47140 (Simulation time: 0 hr 0 min 52 sec) 
Heartbeat CPU  0 instructions:   35000000 cycles:   23831047 heartbeat IPC: 1.38170 cumulative IPC: 1.46867 (Simulation time: 0 hr 0 min 54 sec) 
Heartbeat CPU  0 instructions:   36000000 cycles:   24436244 heartbeat IPC: 1.65235 cumulative IPC: 1.47322 (Simulation time: 0 hr 0 min 56 sec) 
Heartbeat CPU  0 instructions:   37000001 cycles:   24974352 heartbeat IPC: 1.85836 cumulative IPC: 1.48152 (Simulation time: 0 hr 0 min 57 sec) 
Heartbeat CPU  0 instructions:   38000002 cycles:   25540420 heartbeat IPC: 1.76657 cumulative IPC: 1.48784 (Simulation time: 0 hr 0 min 59 sec) 
Heartbeat CPU  0 instructions:   39000001 cycles:   26120034 heartbeat IPC: 1.72528 cumulative IPC: 1.49311 (Simulation time: 0 hr 1 min 1 sec) 
Heartbeat CPU  0 instructions:   40000000 cycles:   26896058 heartbeat IPC: 1.28862 cumulative IPC: 1.48721 (Simulation time: 0 hr 1 min 2 sec) 
Heartbeat CPU  0 instructions:   41000001 cycles:   27761463 heartbeat IPC: 1.15553 cumulative IPC: 1.47687 (Simulation time: 0 hr 1 min 3 sec) 
Heartbeat CPU  0 instructions:   42000001 cycles:   28412439 heartbeat IPC: 1.53615 cumulative IPC: 1.47823 (Simulation time: 0 hr 1 min 4 sec) 
Heartbeat CPU  0 instructions:   43000000 cycles:   29049578 heartbeat IPC: 1.56951 cumulative IPC: 1.48023 (Simulation time: 0 hr 1 min 6 sec) 
Heartbeat CPU  0 instructions:   44000000 cycles:   29674645 heartbeat IPC: 1.59983 cumulative IPC: 1.48275 (Simulation time: 0 hr 1 min 7 sec) 
Heartbeat CPU  0 instructions:   45000000 cycles:   30405947 heartbeat IPC: 1.36742 cumulative IPC: 1.47997 (Simulation time: 0 hr 1 min 9 sec) 
Heartbeat CPU  0 instructions:   46000001 cycles:   30943490 heartbeat IPC: 1.86032 cumulative IPC: 1.48658 (Simulation time: 0 hr 1 min 11 sec) 
Heartbeat CPU  0 instructions:   47000000 cycles:   31501915 heartbeat IPC: 1.79075 cumulative IPC: 1.49197 (Simulation time: 0 hr 1 min 12 sec) 
Heartbeat CPU  0 instructions:   48000000 cycles:   32087421 heartbeat IPC: 1.70792 cumulative IPC: 1.49591 (Simulation time: 0 hr 1 min 14 sec) 
Heartbeat CPU  0 instructions:   49000001 cycles:   32827572 heartbeat IPC: 1.35108 cumulative IPC: 1.49265 (Simulation time: 0 hr 1 min 16 sec) 
Heartbeat CPU  0 instructions:   50000001 cycles:   33695126 heartbeat IPC: 1.15267 cumulative IPC: 1.48389 (Simulation time: 0 hr 1 min 17 sec) 
Heartbeat CPU  0 instructions:   51000003 cycles:   34388746 heartbeat IPC: 1.44171 cumulative IPC: 1.48304 (Simulation time: 0 hr 1 min 18 sec) 
Heartbeat CPU  0 instructions:   52000000 cycles:   34994123 heartbeat IPC: 1.65186 cumulative IPC: 1.48596 (Simulation time: 0 hr 1 min 19 sec) 
Heartbeat CPU  0 instructions:   53000000 cycles:   35571870 heartbeat IPC: 1.73086 cumulative IPC: 1.48994 (Simulation time: 0 hr 1 min 21 sec) 
Heartbeat CPU  0 instructions:   54000002 cycles:   36338425 heartbeat IPC: 1.30454 cumulative IPC: 1.48603 (Simulation time: 0 hr 1 min 24 sec) 
Heartbeat CPU  0 instructions:   55000001 cycles:   36911308 heartbeat IPC: 1.74556 cumulative IPC: 1.49006 (Simulation time: 0 hr 1 min 25 sec) 
Heartbeat CPU  0 instructions:   56000000 cycles:   37463341 heartbeat IPC: 1.81148 cumulative IPC: 1.49479 (Simulation time: 0 hr 1 min 27 sec) 
Heartbeat CPU  0 instructions:   57000002 cycles:   38050623 heartbeat IPC: 1.70276 cumulative IPC: 1.49800 (Simulation time: 0 hr 1 min 28 sec) 
Heartbeat CPU  0 instructions:   58000001 cycles:   38783811 heartbeat IPC: 1.36391 cumulative IPC: 1.49547 (Simulation time: 0 hr 1 min 30 sec) 
Heartbeat CPU  0 instructions:   59000001 cycles:   39653571 heartbeat IPC: 1.14974 cumulative IPC: 1.48789 (Simulation time: 0 hr 1 min 31 sec) 
Heartbeat CPU  0 instructions:   60000000 cycles:   40372469 heartbeat IPC: 1.39102 cumulative IPC: 1.48616 (Simulation time: 0 hr 1 min 32 sec) 
Heartbeat CPU  0 instructions:   61000003 cycles:   40985745 heartbeat IPC: 1.63059 cumulative IPC: 1.48832 (Simulation time: 0 hr 1 min 33 sec) 
Heartbeat CPU  0 instructions:   62000001 cycles:   41553348 heartbeat IPC: 1.76179 cumulative IPC: 1.49206 (Simulation time: 0 hr 1 min 35 sec) 
Heartbeat CPU  0 instructions:   63000000 cycles:   42346538 heartbeat IPC: 1.26073 cumulative IPC: 1.48772 (Simulation time: 0 hr 1 min 37 sec) 
Heartbeat CPU  0 instructions:   64000000 cycles:   42935658 heartbeat IPC: 1.69745 cumulative IPC: 1.49060 (Simulation time: 0 hr 1 min 39 sec) 
Heartbeat CPU  0 instructions:   65000003 cycles:   43484362 heartbeat IPC: 1.82248 cumulative IPC: 1.49479 (Simulation time: 0 hr 1 min 40 sec) 
Heartbeat CPU  0 instructions:   66000003 cycles:   44071519 heartbeat IPC: 1.70312 cumulative IPC: 1.49757 (Simulation time: 0 hr 1 min 42 sec) 
Heartbeat CPU  0 instructions:   67000000 cycles:   44760241 heartbeat IPC: 1.45196 cumulative IPC: 1.49686 (Simulation time: 0 hr 1 min 43 sec) 
Heartbeat CPU  0 instructions:   68000000 cycles:   45635591 heartbeat IPC: 1.14240 cumulative IPC: 1.49007 (Simulation time: 0 hr 1 min 44 sec) 
Heartbeat CPU  0 instructions:   69000001 cycles:   46386777 heartbeat IPC: 1.33123 cumulative IPC: 1.48749 (Simulation time: 0 hr 1 min 46 sec) 
Heartbeat CPU  0 instructions:   70000000 cycles:   47001329 heartbeat IPC: 1.62720 cumulative IPC: 1.48932 (Simulation time: 0 hr 1 min 47 sec) 
Heartbeat CPU  0 instructions:   71000002 cycles:   47532607 heartbeat IPC: 1.88226 cumulative IPC: 1.49371 (Simulation time: 0 hr 1 min 48 sec) 
Heartbeat CPU  0 instructions:   72000000 cycles:   48340394 heartbeat IPC: 1.23795 cumulative IPC: 1.48944 (Simulation time: 0 hr 1 min 50 sec) 
Heartbeat CPU  0 instructions:   73000001 cycles:   48936703 heartbeat IPC: 1.67698 cumulative IPC: 1.49172 (Simulation time: 0 hr 1 min 52 sec) 
Heartbeat CPU  0 instructions:   74000002 cycles:   49478888 heartbeat IPC: 1.84439 cumulative IPC: 1.49559 (Simulation time: 0 hr 1 min 54 sec) 
Heartbeat CPU  0 instructions:   75000003 cycles:   50075182 heartbeat IPC: 1.67703 cumulative IPC: 1.49775 (Simulation time: 0 hr 1 min 55 sec) 
Heartbeat CPU  0 instructions:   76000000 cycles:   50728203 heartbeat IPC: 1.53134 cumulative IPC: 1.49818 (Simulation time: 0 hr 1 min 57 sec) 
Heartbeat CPU  0 instructions:   77000001 cycles:   51601330 heartbeat IPC: 1.14531 cumulative IPC: 1.49221 (Simulation time: 0 hr 1 min 58 sec) 
Heartbeat CPU  0 instructions:   78000001 cycles:   52374567 heartbeat IPC: 1.29326 cumulative IPC: 1.48927 (Simulation time: 0 hr 1 min 59 sec) 
Heartbeat CPU  0 instructions:   79000003 cycles:   52987830 heartbeat IPC: 1.63063 cumulative IPC: 1.49091 (Simulation time: 0 hr 2 min 1 sec) 
Heartbeat CPU  0 instructions:   80000000 cycles:   53551734 heartbeat IPC: 1.77335 cumulative IPC: 1.49388 (Simulation time: 0 hr 2 min 2 sec) 
Heartbeat CPU  0 instructions:   81000001 cycles:   54338973 heartbeat IPC: 1.27026 cumulative IPC: 1.49064 (Simulation time: 0 hr 2 min 4 sec) 
Heartbeat CPU  0 instructions:   82000002 cycles:   54950641 heartbeat IPC: 1.63488 cumulative IPC: 1.49225 (Simulation time: 0 hr 2 min 6 sec) 
Heartbeat CPU  0 instructions:   83000003 cycles:   55510638 heartbeat IPC: 1.78573 cumulative IPC: 1.49521 (Simulation time: 0 hr 2 min 7 sec) 
Heartbeat CPU  0 instructions:   84000000 cycles:   56064977 heartbeat IPC: 1.80394 cumulative IPC: 1.49826 (Simulation time: 0 hr 2 min 9 sec) 
Heartbeat CPU  0 instructions:   85000001 cycles:   56649632 heartbeat IPC: 1.71041 cumulative IPC: 1.50045 (Simulation time: 0 hr 2 min 11 sec) 
Heartbeat CPU  0 instructions:   86000000 cycles:   57522914 heartbeat IPC: 1.14510 cumulative IPC: 1.49506 (Simulation time: 0 hr 2 min 12 sec) 
Heartbeat CPU  0 instructions:   87000000 cycles:   58349219 heartbeat IPC: 1.21021 cumulative IPC: 1.49102 (Simulation time: 0 hr 2 min 13 sec) 
Heartbeat CPU  0 instructions:   88000000 cycles:   58967727 heartbeat IPC: 1.61679 cumulative IPC: 1.49234 (Simulation time: 0 hr 2 min 14 sec) 
Heartbeat CPU  0 instructions:   89000003 cycles:   59603731 heartbeat IPC: 1.57232 cumulative IPC: 1.49320 (Simulation time: 0 hr 2 min 16 sec) 
Heartbeat CPU  0 instructions:   90000003 cycles:   60297666 heartbeat IPC: 1.44106 cumulative IPC: 1.49260 (Simulation time: 0 hr 2 min 18 sec) 
Heartbeat CPU  0 instructions:   91000001 cycles:   60972455 heartbeat IPC: 1.48194 cumulative IPC: 1.49248 (Simulation time: 0 hr 2 min 20 sec) 
Heartbeat CPU  0 instructions:   92000000 cycles:   61544837 heartbeat IPC: 1.74708 cumulative IPC: 1.49485 (Simulation time: 0 hr 2 min 21 sec) 
Heartbeat CPU  0 instructions:   93000001 cycles:   62090417 heartbeat IPC: 1.83291 cumulative IPC: 1.49782 (Simulation time: 0 hr 2 min 23 sec) 
Heartbeat CPU  0 instructions:   94000003 cycles:   62676882 heartbeat IPC: 1.70513 cumulative IPC: 1.49976 (Simulation time: 0 hr 2 min 25 sec) 
Heartbeat CPU  0 instructions:   95000003 cycles:   63514349 heartbeat IPC: 1.19408 cumulative IPC: 1.49573 (Simulation time: 0 hr 2 min 26 sec) 
Heartbeat CPU  0 instructions:   96000000 cycles:   64361475 heartbeat IPC: 1.18046 cumulative IPC: 1.49158 (Simulation time: 0 hr 2 min 27 sec) 
Heartbeat CPU  0 instructions:   97000002 cycles:   64996667 heartbeat IPC: 1.57433 cumulative IPC: 1.49238 (Simulation time: 0 hr 2 min 28 sec) 
Heartbeat CPU  0 instructions:   98000003 cycles:   65640284 heartbeat IPC: 1.55372 cumulative IPC: 1.49299 (Simulation time: 0 hr 2 min 29 sec) 
Heartbeat CPU  0 instructions:   99000002 cycles:   66292520 heartbeat IPC: 1.53319 cumulative IPC: 1.49338 (Simulation time: 0 hr 2 min 31 sec) 
Heartbeat CPU  0 instructions:  100000000 cycles:   66877438 heartbeat IPC: 1.70964 cumulative IPC: 1.49527 (Simulation time: 0 hr 2 min 33 sec) 

Warmup complete CPU  0 instructions:  100000002 cycles:   66877440 (Simulation time: 0 hr 2 min 33 sec) 

Heartbeat CPU  0 instructions:  101000000 cycles:   74324237 heartbeat IPC: 0.13429 cumulative IPC: 0.13429 (Simulation time: 0 hr 2 min 38 sec) 
Heartbeat CPU  0 instructions:  102000001 cycles:   78149171 heartbeat IPC: 0.26144 cumulative IPC: 0.17743 (Simulation time: 0 hr 2 min 42 sec) 
Heartbeat CPU  0 instructions:  103000001 cycles:   82838172 heartbeat IPC: 0.21327 cumulative IPC: 0.18796 (Simulation time: 0 hr 2 min 46 sec) 
Heartbeat CPU  0 instructions:  104000000 cycles:   87720144 heartbeat IPC: 0.20484 cumulative IPC: 0.19191 (Simulation time: 0 hr 2 min 51 sec) 
Heartbeat CPU  0 instructions:  105000003 cycles:   91107376 heartbeat IPC: 0.29523 cumulative IPC: 0.20636 (Simulation time: 0 hr 2 min 54 sec) 
Heartbeat CPU  0 instructions:  106000001 cycles:   94063294 heartbeat IPC: 0.33830 cumulative IPC: 0.22070 (Simulation time: 0 hr 2 min 58 sec) 
Heartbeat CPU  0 instructions:  107000003 cycles:   98315389 heartbeat IPC: 0.23518 cumulative IPC: 0.22266 (Simulation time: 0 hr 3 min 1 sec) 
Heartbeat CPU  0 instructions:  108000000 cycles:  101917927 heartbeat IPC: 0.27758 cumulative IPC: 0.22831 (Simulation time: 0 hr 3 min 4 sec) 
Heartbeat CPU  0 instructions:  109000000 cycles:  105478384 heartbeat IPC: 0.28086 cumulative IPC: 0.23315 (Simulation time: 0 hr 3 min 7 sec) 
Heartbeat CPU  0 instructions:  110000001 cycles:  107963942 heartbeat IPC: 0.40232 cumulative IPC: 0.24339 (Simulation time: 0 hr 3 min 9 sec) 
Heartbeat CPU  0 instructions:  111000003 cycles:  110630806 heartbeat IPC: 0.37497 cumulative IPC: 0.25141 (Simulation time: 0 hr 3 min 12 sec) 
Heartbeat CPU  0 instructions:  112000000 cycles:  112605646 heartbeat IPC: 0.50637 cumulative IPC: 0.26242 (Simulation time: 0 hr 3 min 15 sec) 
Heartbeat CPU  0 instructions:  113000002 cycles:  114674554 heartbeat IPC: 0.48335 cumulative IPC: 0.27198 (Simulation time: 0 hr 3 min 17 sec) 
Heartbeat CPU  0 instructions:  114000000 cycles:  116256592 heartbeat IPC: 0.63209 cumulative IPC: 0.28352 (Simulation time: 0 hr 3 min 20 sec) 
Heartbeat CPU  0 instructions:  115000000 cycles:  118167399 heartbeat IPC: 0.52334 cumulative IPC: 0.29245 (Simulation time: 0 hr 3 min 22 sec) 
Heartbeat CPU  0 instructions:  116000000 cycles:  121106791 heartbeat IPC: 0.34021 cumulative IPC: 0.29504 (Simulation time: 0 hr 3 min 25 sec) 
Heartbeat CPU  0 instructions:  117000000 cycles:  123950206 heartbeat IPC: 0.35169 cumulative IPC: 0.29787 (Simulation time: 0 hr 3 min 28 sec) 
Heartbeat CPU  0 instructions:  118000000 cycles:  125758408 heartbeat IPC: 0.55304 cumulative IPC: 0.30570 (Simulation time: 0 hr 3 min 31 sec) 
Heartbeat CPU  0 instructions:  119000000 cycles:  128387754 heartbeat IPC: 0.38032 cumulative IPC: 0.30889 (Simulation time: 0 hr 3 min 33 sec) 
Heartbeat CPU  0 instructions:  120000000 cycles:  130006419 heartbeat IPC: 0.61779 cumulative IPC: 0.31681 (Simulation time: 0 hr 3 min 36 sec) 
Heartbeat CPU  0 instructions:  121000001 cycles:  133983406 heartbeat IPC: 0.25145 cumulative IPC: 0.31294 (Simulation time: 0 hr 3 min 40 sec) 
Heartbeat CPU  0 instructions:  122000001 cycles:  137927436 heartbeat IPC: 0.25355 cumulative IPC: 0.30964 (Simulation time: 0 hr 3 min 43 sec) 
Heartbeat CPU  0 instructions:  123000000 cycles:  139665793 heartbeat IPC: 0.57526 cumulative IPC: 0.31598 (Simulation time: 0 hr 3 min 45 sec) 
Heartbeat CPU  0 instructions:  124000000 cycles:  141095909 heartbeat IPC: 0.69924 cumulative IPC: 0.32337 (Simulation time: 0 hr 3 min 46 sec) 
Heartbeat CPU  0 instructions:  125000000 cycles:  144177481 heartbeat IPC: 0.32451 cumulative IPC: 0.32342 (Simulation time: 0 hr 3 min 49 sec) 
Heartbeat CPU  0 instructions:  126000002 cycles:  146845235 heartbeat IPC: 0.37485 cumulative IPC: 0.32513 (Simulation time: 0 hr 3 min 52 sec) 
Heartbeat CPU  0 instructions:  127000002 cycles:  149747164 heartbeat IPC: 0.34460 cumulative IPC: 0.32581 (Simulation time: 0 hr 3 min 55 sec) 
Heartbeat CPU  0 instructions:  128000000 cycles:  152004278 heartbeat IPC: 0.44304 cumulative IPC: 0.32892 (Simulation time: 0 hr 3 min 57 sec) 
Heartbeat CPU  0 instructions:  129000002 cycles:  154107434 heartbeat IPC: 0.47548 cumulative IPC: 0.33245 (Simulation time: 0 hr 4 min 0 sec) 
Heartbeat CPU  0 instructions:  130000000 cycles:  158972580 heartbeat IPC: 0.20554 cumulative IPC: 0.32575 (Simulation time: 0 hr 4 min 5 sec) 
Heartbeat CPU  0 instructions:  131000000 cycles:  161211935 heartbeat IPC: 0.44656 cumulative IPC: 0.32862 (Simulation time: 0 hr 4 min 6 sec) 
Heartbeat CPU  0 instructions:  132000000 cycles:  162852574 heartbeat IPC: 0.60952 cumulative IPC: 0.33342 (Simulation time: 0 hr 4 min 8 sec) 
Heartbeat CPU  0 instructions:  133000000 cycles:  164941790 heartbeat IPC: 0.47865 cumulative IPC: 0.33651 (Simulation time: 0 hr 4 min 10 sec) 
Heartbeat CPU  0 instructions:  134000000 cycles:  167716582 heartbeat IPC: 0.36039 cumulative IPC: 0.33717 (Simulation time: 0 hr 4 min 13 sec) 
Heartbeat CPU  0 instructions:  135000002 cycles:  170473751 heartbeat IPC: 0.36269 cumulative IPC: 0.33785 (Simulation time: 0 hr 4 min 16 sec) 
Heartbeat CPU  0 instructions:  136000000 cycles:  172821752 heartbeat IPC: 0.42589 cumulative IPC: 0.33980 (Simulation time: 0 hr 4 min 19 sec) 
Heartbeat CPU  0 instructions:  137000000 cycles:  174797884 heartbeat IPC: 0.50604 cumulative IPC: 0.34285 (Simulation time: 0 hr 4 min 21 sec) 
Heartbeat CPU  0 instructions:  138000001 cycles:  177455552 heartbeat IPC: 0.37627 cumulative IPC: 0.34365 (Simulation time: 0 hr 4 min 24 sec) 
Heartbeat CPU  0 instructions:  139000000 cycles:  182215208 heartbeat IPC: 0.21010 cumulative IPC: 0.33814 (Simulation time: 0 hr 4 min 29 sec) 
Heartbeat CPU  0 instructions:  140000000 cycles:  184086290 heartbeat IPC: 0.53445 cumulative IPC: 0.34127 (Simulation time: 0 hr 4 min 31 sec) 
Heartbeat CPU  0 instructions:  141000000 cycles:  185639125 heartbeat IPC: 0.64398 cumulative IPC: 0.34523 (Simulation time: 0 hr 4 min 32 sec) 
Heartbeat CPU  0 instructions:  142000000 cycles:  188097417 heartbeat IPC: 0.40679 cumulative IPC: 0.34648 (Simulation time: 0 hr 4 min 35 sec) 
Heartbeat CPU  0 instructions:  143000000 cycles:  190460579 heartbeat IPC: 0.42316 cumulative IPC: 0.34794 (Simulation time: 0 hr 4 min 37 sec) 
Heartbeat CPU  0 instructions:  144000000 cycles:  193369132 heartbeat IPC: 0.34381 cumulative IPC: 0.34785 (Simulation time: 0 hr 4 min 40 sec) 
Heartbeat CPU  0 instructions:  145000002 cycles:  195909712 heartbeat IPC: 0.39361 cumulative IPC: 0.34875 (Simulation time: 0 hr 4 min 43 sec) 
Heartbeat CPU  0 instructions:  146000003 cycles:  197594814 heartbeat IPC: 0.59344 cumulative IPC: 0.35190 (Simulation time: 0 hr 4 min 46 sec) 
Heartbeat CPU  0 instructions:  147000002 cycles:  201213217 heartbeat IPC: 0.27636 cumulative IPC: 0.34987 (Simulation time: 0 hr 4 min 49 sec) 
Heartbeat CPU  0 instructions:  148000000 cycles:  205268324 heartbeat IPC: 0.24660 cumulative IPC: 0.34684 (Simulation time: 0 hr 4 min 53 sec) 
Heartbeat CPU  0 instructions:  149000000 cycles:  207026513 heartbeat IPC: 0.56877 cumulative IPC: 0.34963 (Simulation time: 0 hr 4 min 54 sec) 
Heartbeat CPU  0 instructions:  150000002 cycles:  208496715 heartbeat IPC: 0.68018 cumulative IPC: 0.35306 (Simulation time: 0 hr 4 min 56 sec) 
Heartbeat CPU  0 instructions:  151000000 cycles:  211330326 heartbeat IPC: 0.35291 cumulative IPC: 0.35306 (Simulation time: 0 hr 4 min 58 sec) 
Heartbeat CPU  0 instructions:  152000000 cycles:  213727755 heartbeat IPC: 0.41711 cumulative IPC: 0.35410 (Simulation time: 0 hr 5 min 1 sec) 
Heartbeat CPU  0 instructions:  153000000 cycles:  216129048 heartbeat IPC: 0.41644 cumulative IPC: 0.35511 (Simulation time: 0 hr 5 min 4 sec) 
Heartbeat CPU  0 instructions:  154000002 cycles:  218941080 heartbeat IPC: 0.35562 cumulative IPC: 0.35511 (Simulation time: 0 hr 5 min 6 sec) 
Heartbeat CPU  0 instructions:  155000002 cycles:  220392186 heartbeat IPC: 0.68913 cumulative IPC: 0.35827 (Simulation time: 0 hr 5 min 9 sec) 
Heartbeat CPU  0 instructions:  156000000 cycles:  224483733 heartbeat IPC: 0.24441 cumulative IPC: 0.35532 (Simulation time: 0 hr 5 min 13 sec) 
Heartbeat CPU  0 instructions:  157000000 cycles:  228202674 heartbeat IPC: 0.26889 cumulative IPC: 0.35332 (Simulation time: 0 hr 5 min 16 sec) 
Heartbeat CPU  0 instructions:  158000003 cycles:  229935899 heartbeat IPC: 0.57696 cumulative IPC: 0.35570 (Simulation time: 0 hr 5 min 17 sec) 
Heartbeat CPU  0 instructions:  159000000 cycles:  231474885 heartbeat IPC: 0.64978 cumulative IPC: 0.35845 (Simulation time: 0 hr 5 min 19 sec) 
Heartbeat CPU  0 instructions:  160000000 cycles:  234711214 heartbeat IPC: 0.30899 cumulative IPC: 0.35750 (Simulation time: 0 hr 5 min 22 sec) 
Heartbeat CPU  0 instructions:  161000003 cycles:  237164344 heartbeat IPC: 0.40764 cumulative IPC: 0.35822 (Simulation time: 0 hr 5 min 25 sec) 
Heartbeat CPU  0 instructions:  162000001 cycles:  239669194 heartbeat IPC: 0.39922 cumulative IPC: 0.35881 (Simulation time: 0 hr 5 min 27 sec) 
Heartbeat CPU  0 instructions:  163000000 cycles:  242017414 heartbeat IPC: 0.42585 cumulative IPC: 0.35971 (Simulation time: 0 hr 5 min 30 sec) 
Heartbeat CPU  0 instructions:  164000000 cycles:  244082431 heartbeat IPC: 0.48426 cumulative IPC: 0.36116 (Simulation time: 0 hr 5 min 33 sec) 
Heartbeat CPU  0 instructions:  165000001 cycles:  248855211 heartbeat IPC: 0.20952 cumulative IPC: 0.35719 (Simulation time: 0 hr 5 min 37 sec) 
Heartbeat CPU  0 instructions:  166000000 cycles:  251189465 heartbeat IPC: 0.42840 cumulative IPC: 0.35809 (Simulation time: 0 hr 5 min 39 sec) 
Heartbeat CPU  0 instructions:  167000001 cycles:  252834095 heartbeat IPC: 0.60804 cumulative IPC: 0.36030 (Simulation time: 0 hr 5 min 40 sec) 
Heartbeat CPU  0 instructions:  168000000 cycles:  254910350 heartbeat IPC: 0.48164 cumulative IPC: 0.36164 (Simulation time: 0 hr 5 min 42 sec) 
Heartbeat CPU  0 instructions:  169000001 cycles:  257675340 heartbeat IPC: 0.36167 cumulative IPC: 0.36164 (Simulation time: 0 hr 5 min 45 sec) 
Heartbeat CPU  0 instructions:  170000002 cycles:  260463634 heartbeat IPC: 0.35864 cumulative IPC: 0.36160 (Simulation time: 0 hr 5 min 48 sec) 
Heartbeat CPU  0 instructions:  171000000 cycles:  262897803 heartbeat IPC: 0.41082 cumulative IPC: 0.36221 (Simulation time: 0 hr 5 min 51 sec) 
Heartbeat CPU  0 instructions:  172000000 cycles:  264909721 heartbeat IPC: 0.49704 cumulative IPC: 0.36358 (Simulation time: 0 hr 5 min 53 sec) 
Heartbeat CPU  0 instructions:  173000000 cycles:  267530083 heartbeat IPC: 0.38163 cumulative IPC: 0.36381 (Simulation time: 0 hr 5 min 56 sec) 
Heartbeat CPU  0 instructions:  174000000 cycles:  272319674 heartbeat IPC: 0.20879 cumulative IPC: 0.36020 (Simulation time: 0 hr 6 min 0 sec) 
Heartbeat CPU  0 instructions:  175000000 cycles:  274203144 heartbeat IPC: 0.53093 cumulative IPC: 0.36175 (Simulation time: 0 hr 6 min 2 sec) 
Heartbeat CPU  0 instructions:  176000000 cycles:  275761263 heartbeat IPC: 0.64180 cumulative IPC: 0.36384 (Simulation time: 0 hr 6 min 3 sec) 
Heartbeat CPU  0 instructions:  177000001 cycles:  278189921 heartbeat IPC: 0.41175 cumulative IPC: 0.36439 (Simulation time: 0 hr 6 min 5 sec) 
Heartbeat CPU  0 instructions:  178000001 cycles:  280599093 heartbeat IPC: 0.41508 cumulative IPC: 0.36496 (Simulation time: 0 hr 6 min 8 sec) 
Heartbeat CPU  0 instructions:  179000003 cycles:  283505237 heartbeat IPC: 0.34410 cumulative IPC: 0.36468 (Simulation time: 0 hr 6 min 11 sec) 
Heartbeat CPU  0 instructions:  180000000 cycles:  286140970 heartbeat IPC: 0.37940 cumulative IPC: 0.36486 (Simulation time: 0 hr 6 min 13 sec) 
Heartbeat CPU  0 instructions:  181000003 cycles:  287735360 heartbeat IPC: 0.62720 cumulative IPC: 0.36675 (Simulation time: 0 hr 6 min 16 sec) 
Heartbeat CPU  0 instructions:  182000000 cycles:  291708606 heartbeat IPC: 0.25168 cumulative IPC: 0.36472 (Simulation time: 0 hr 6 min 20 sec) 
Heartbeat CPU  0 instructions:  183000000 cycles:  295523675 heartbeat IPC: 0.26212 cumulative IPC: 0.36301 (Simulation time: 0 hr 6 min 23 sec) 
Heartbeat CPU  0 instructions:  184000000 cycles:  297256453 heartbeat IPC: 0.57711 cumulative IPC: 0.36462 (Simulation time: 0 hr 6 min 24 sec) 
Heartbeat CPU  0 instructions:  185000002 cycles:  298717123 heartbeat IPC: 0.68462 cumulative IPC: 0.36663 (Simulation time: 0 hr 6 min 26 sec) 
Heartbeat CPU  0 instructions:  186000000 cycles:  301927490 heartbeat IPC: 0.31149 cumulative IPC: 0.36588 (Simulation time: 0 hr 6 min 28 sec) 
Heartbeat CPU  0 instructions:  187000003 cycles:  304446783 heartbeat IPC: 0.39694 cumulative IPC: 0.36621 (Simulation time: 0 hr 6 min 31 sec) 
Heartbeat CPU  0 instructions:  188000000 cycles:  306671960 heartbeat IPC: 0.44940 cumulative IPC: 0.36698 (Simulation time: 0 hr 6 min 34 sec) 
Heartbeat CPU  0 instructions:  189000001 cycles:  309333659 heartbeat IPC: 0.37570 cumulative IPC: 0.36708 (Simulation time: 0 hr 6 min 37 sec) 
Heartbeat CPU  0 instructions:  190000001 cycles:  311034304 heartbeat IPC: 0.58801 cumulative IPC: 0.36862 (Simulation time: 0 hr 6 min 40 sec) 
Heartbeat CPU  0 instructions:  191000002 cycles:  315511082 heartbeat IPC: 0.22338 cumulative IPC: 0.36600 (Simulation time: 0 hr 6 min 44 sec) 
Heartbeat CPU  0 instructions:  192000000 cycles:  318468672 heartbeat IPC: 0.33811 cumulative IPC: 0.36567 (Simulation time: 0 hr 6 min 46 sec) 
Heartbeat CPU  0 instructions:  193000003 cycles:  320159656 heartbeat IPC: 0.59137 cumulative IPC: 0.36718 (Simulation time: 0 hr 6 min 48 sec) 
Heartbeat CPU  0 instructions:  194000001 cycles:  322000400 heartbeat IPC: 0.54326 cumulative IPC: 0.36845 (Simulation time: 0 hr 6 min 50 sec) 
Heartbeat CPU  0 instructions:  195000000 cycles:  324970280 heartbeat IPC: 0.33671 cumulative IPC: 0.36808 (Simulation time: 0 hr 6 min 52 sec) 
Heartbeat CPU  0 instructions:  196000000 cycles:  327586100 heartbeat IPC: 0.38229 cumulative IPC: 0.36823 (Simulation time: 0 hr 6 min 55 sec) 
Heartbeat CPU  0 instructions:  197000000 cycles:  329994640 heartbeat IPC: 0.41519 cumulative IPC: 0.36866 (Simulation time: 0 hr 6 min 58 sec) 
Heartbeat CPU  0 instructions:  198000000 cycles:  332167895 heartbeat IPC: 0.46014 cumulative IPC: 0.36941 (Simulation time: 0 hr 7 min 0 sec) 
Heartbeat CPU  0 instructions:  199000001 cycles:  334375072 heartbeat IPC: 0.45307 cumulative IPC: 0.37010 (Simulation time: 0 hr 7 min 3 sec) 
Heartbeat CPU  0 instructions:  200000000 cycles:  339356049 heartbeat IPC: 0.20076 cumulative IPC: 0.36700 (Simulation time: 0 hr 7 min 8 sec) 
Heartbeat CPU  0 instructions:  201000000 cycles:  341382357 heartbeat IPC: 0.49351 cumulative IPC: 0.36794 (Simulation time: 0 hr 7 min 9 sec) 
Heartbeat CPU  0 instructions:  202000002 cycles:  343002765 heartbeat IPC: 0.61713 cumulative IPC: 0.36940 (Simulation time: 0 hr 7 min 11 sec) 
Heartbeat CPU  0 instructions:  203000002 cycles:  345158945 heartbeat IPC: 0.46378 cumulative IPC: 0.37013 (Simulation time: 0 hr 7 min 13 sec) 
Heartbeat CPU  0 instructions:  204000000 cycles:  347863390 heartbeat IPC: 0.36976 cumulative IPC: 0.37013 (Simulation time: 0 hr 7 min 15 sec) 
Heartbeat CPU  0 instructions:  205000000 cycles:  350657680 heartbeat IPC: 0.35787 cumulative IPC: 0.37000 (Simulation time: 0 hr 7 min 19 sec) 
Heartbeat CPU  0 instructions:  206000000 cycles:  351439916 heartbeat IPC: 1.27839 cumulative IPC: 0.37250 (Simulation time: 0 hr 7 min 21 sec) 
Heartbeat CPU  0 instructions:  207000002 cycles:  360698527 heartbeat IPC: 0.10801 cumulative IPC: 0.36417 (Simulation time: 0 hr 7 min 27 sec) 
Heartbeat CPU  0 instructions:  208000000 cycles:  362964321 heartbeat IPC: 0.44135 cumulative IPC: 0.36476 (Simulation time: 0 hr 7 min 31 sec) 
Heartbeat CPU  0 instructions:  209000001 cycles:  368456280 heartbeat IPC: 0.18208 cumulative IPC: 0.36143 (Simulation time: 0 hr 7 min 36 sec) 
Heartbeat CPU  0 instructions:  210000000 cycles:  373039570 heartbeat IPC: 0.21818 cumulative IPC: 0.35929 (Simulation time: 0 hr 7 min 40 sec) 
Heartbeat CPU  0 instructions:  211000001 cycles:  376482131 heartbeat IPC: 0.29048 cumulative IPC: 0.35852 (Simulation time: 0 hr 7 min 44 sec) 
Heartbeat CPU  0 instructions:  212000000 cycles:  379237685 heartbeat IPC: 0.36290 cumulative IPC: 0.35856 (Simulation time: 0 hr 7 min 48 sec) 
Heartbeat CPU  0 instructions:  213000002 cycles:  383520233 heartbeat IPC: 0.23351 cumulative IPC: 0.35687 (Simulation time: 0 hr 7 min 51 sec) 
Heartbeat CPU  0 instructions:  214000001 cycles:  387250406 heartbeat IPC: 0.26808 cumulative IPC: 0.35584 (Simulation time: 0 hr 7 min 54 sec) 
Heartbeat CPU  0 instructions:  215000002 cycles:  390681905 heartbeat IPC: 0.29142 cumulative IPC: 0.35515 (Simulation time: 0 hr 7 min 58 sec) 
Heartbeat CPU  0 instructions:  216000000 cycles:  392960703 heartbeat IPC: 0.43883 cumulative IPC: 0.35574 (Simulation time: 0 hr 8 min 0 sec) 
Heartbeat CPU  0 instructions:  217000000 cycles:  395643791 heartbeat IPC: 0.37270 cumulative IPC: 0.35588 (Simulation time: 0 hr 8 min 3 sec) 
Heartbeat CPU  0 instructions:  218000002 cycles:  397621406 heartbeat IPC: 0.50566 cumulative IPC: 0.35677 (Simulation time: 0 hr 8 min 6 sec) 
Heartbeat CPU  0 instructions:  219000002 cycles:  399519112 heartbeat IPC: 0.52695 cumulative IPC: 0.35774 (Simulation time: 0 hr 8 min 9 sec) 
Heartbeat CPU  0 instructions:  220000000 cycles:  401107269 heartbeat IPC: 0.62966 cumulative IPC: 0.35903 (Simulation time: 0 hr 8 min 12 sec) 
Heartbeat CPU  0 instructions:  221000003 cycles:  403397318 heartbeat IPC: 0.43667 cumulative IPC: 0.35956 (Simulation time: 0 hr 8 min 14 sec) 
Heartbeat CPU  0 instructions:  222000003 cycles:  406162643 heartbeat IPC: 0.36162 cumulative IPC: 0.35958 (Simulation time: 0 hr 8 min 18 sec) 
Heartbeat CPU  0 instructions:  223000002 cycles:  408905295 heartbeat IPC: 0.36461 cumulative IPC: 0.35962 (Simulation time: 0 hr 8 min 21 sec) 
Heartbeat CPU  0 instructions:  224000000 cycles:  410698055 heartbeat IPC: 0.55780 cumulative IPC: 0.36065 (Simulation time: 0 hr 8 min 24 sec) 
Heartbeat CPU  0 instructions:  225000000 cycles:  413320728 heartbeat IPC: 0.38129 cumulative IPC: 0.36081 (Simulation time: 0 hr 8 min 27 sec) 
Heartbeat CPU  0 instructions:  226000000 cycles:  414745717 heartbeat IPC: 0.70176 cumulative IPC: 0.36221 (Simulation time: 0 hr 8 min 29 sec) 
Heartbeat CPU  0 instructions:  227000000 cycles:  419424599 heartbeat IPC: 0.21373 cumulative IPC: 0.36024 (Simulation time: 0 hr 8 min 34 sec) 
Heartbeat CPU  0 instructions:  228000000 cycles:  422680604 heartbeat IPC: 0.30712 cumulative IPC: 0.35975 (Simulation time: 0 hr 8 min 36 sec) 
Heartbeat CPU  0 instructions:  229000001 cycles:  424390373 heartbeat IPC: 0.58487 cumulative IPC: 0.36083 (Simulation time: 0 hr 8 min 38 sec) 
Heartbeat CPU  0 instructions:  230000000 cycles:  426064181 heartbeat IPC: 0.59744 cumulative IPC: 0.36193 (Simulation time: 0 hr 8 min 39 sec) 
Heartbeat CPU  0 instructions:  231000000 cycles:  429217608 heartbeat IPC: 0.31712 cumulative IPC: 0.36154 (Simulation time: 0 hr 8 min 42 sec) 
Heartbeat CPU  0 instructions:  232000000 cycles:  431890200 heartbeat IPC: 0.37417 cumulative IPC: 0.36163 (Simulation time: 0 hr 8 min 45 sec) 
Heartbeat CPU  0 instructions:  233000000 cycles:  434717549 heartbeat IPC: 0.35369 cumulative IPC: 0.36157 (Simulation time: 0 hr 8 min 48 sec) 
Heartbeat CPU  0 instructions:  234000002 cycles:  436689821 heartbeat IPC: 0.50703 cumulative IPC: 0.36235 (Simulation time: 0 hr 8 min 51 sec) 
Heartbeat CPU  0 instructions:  235000000 cycles:  439333777 heartbeat IPC: 0.37822 cumulative IPC: 0.36246 (Simulation time: 0 hr 8 min 54 sec) 
Heartbeat CPU  0 instructions:  236000000 cycles:  444102682 heartbeat IPC: 0.20969 cumulative IPC: 0.36053 (Simulation time: 0 hr 8 min 59 sec) 
Heartbeat CPU  0 instructions:  237000002 cycles:  445965568 heartbeat IPC: 0.53680 cumulative IPC: 0.36139 (Simulation time: 0 hr 9 min 0 sec) 
Heartbeat CPU  0 instructions:  238000002 cycles:  447515001 heartbeat IPC: 0.64540 cumulative IPC: 0.36255 (Simulation time: 0 hr 9 min 2 sec) 
Heartbeat CPU  0 instructions:  239000001 cycles:  449989598 heartbeat IPC: 0.40411 cumulative IPC: 0.36282 (Simulation time: 0 hr 9 min 4 sec) 
Heartbeat CPU  0 instructions:  240000000 cycles:  452347443 heartbeat IPC: 0.42412 cumulative IPC: 0.36319 (Simulation time: 0 hr 9 min 6 sec) 
Heartbeat CPU  0 instructions:  241000001 cycles:  455244102 heartbeat IPC: 0.34523 cumulative IPC: 0.36306 (Simulation time: 0 hr 9 min 9 sec) 
Heartbeat CPU  0 instructions:  242000002 cycles:  457746173 heartbeat IPC: 0.39967 cumulative IPC: 0.36329 (Simulation time: 0 hr 9 min 12 sec) 
Heartbeat CPU  0 instructions:  243000002 cycles:  459418727 heartbeat IPC: 0.59789 cumulative IPC: 0.36429 (Simulation time: 0 hr 9 min 14 sec) 
Heartbeat CPU  0 instructions:  244000000 cycles:  463054184 heartbeat IPC: 0.27507 cumulative IPC: 0.36347 (Simulation time: 0 hr 9 min 18 sec) 
Heartbeat CPU  0 instructions:  245000001 cycles:  467110434 heartbeat IPC: 0.24653 cumulative IPC: 0.36229 (Simulation time: 0 hr 9 min 22 sec) 
Heartbeat CPU  0 instructions:  246000001 cycles:  468867485 heartbeat IPC: 0.56914 cumulative IPC: 0.36319 (Simulation time: 0 hr 9 min 23 sec) 
Heartbeat CPU  0 instructions:  247000001 cycles:  470341351 heartbeat IPC: 0.67849 cumulative IPC: 0.36434 (Simulation time: 0 hr 9 min 25 sec) 
Heartbeat CPU  0 instructions:  248000000 cycles:  473196196 heartbeat IPC: 0.35028 cumulative IPC: 0.36425 (Simulation time: 0 hr 9 min 27 sec) 
Heartbeat CPU  0 instructions:  249000000 cycles:  475613502 heartbeat IPC: 0.41368 cumulative IPC: 0.36454 (Simulation time: 0 hr 9 min 30 sec) 
Heartbeat CPU  0 instructions:  250000000 cycles:  477972262 heartbeat IPC: 0.42395 cumulative IPC: 0.36488 (Simulation time: 0 hr 9 min 33 sec) 
Heartbeat CPU  0 instructions:  251000001 cycles:  480788340 heartbeat IPC: 0.35510 cumulative IPC: 0.36481 (Simulation time: 0 hr 9 min 36 sec) 
Heartbeat CPU  0 instructions:  252000000 cycles:  482208333 heartbeat IPC: 0.70423 cumulative IPC: 0.36597 (Simulation time: 0 hr 9 min 38 sec) 
Heartbeat CPU  0 instructions:  253000000 cycles:  486334792 heartbeat IPC: 0.24234 cumulative IPC: 0.36476 (Simulation time: 0 hr 9 min 42 sec) 
Heartbeat CPU  0 instructions:  254000000 cycles:  490036396 heartbeat IPC: 0.27015 cumulative IPC: 0.36393 (Simulation time: 0 hr 9 min 45 sec) 
Heartbeat CPU  0 instructions:  255000002 cycles:  491763943 heartbeat IPC: 0.57886 cumulative IPC: 0.36480 (Simulation time: 0 hr 9 min 46 sec) 
Heartbeat CPU  0 instructions:  256000000 cycles:  493310762 heartbeat IPC: 0.64649 cumulative IPC: 0.36583 (Simulation time: 0 hr 9 min 48 sec) 
Heartbeat CPU  0 instructions:  257000000 cycles:  496551012 heartbeat IPC: 0.30862 cumulative IPC: 0.36539 (Simulation time: 0 hr 9 min 51 sec) 
Heartbeat CPU  0 instructions:  258000001 cycles:  498985276 heartbeat IPC: 0.41080 cumulative IPC: 0.36565 (Simulation time: 0 hr 9 min 54 sec) 
Heartbeat CPU  0 instructions:  259000003 cycles:  501181964 heartbeat IPC: 0.45523 cumulative IPC: 0.36610 (Simulation time: 0 hr 9 min 57 sec) 
Heartbeat CPU  0 instructions:  260000000 cycles:  503777298 heartbeat IPC: 0.38531 cumulative IPC: 0.36622 (Simulation time: 0 hr 9 min 59 sec) 
Heartbeat CPU  0 instructions:  261000000 cycles:  505591124 heartbeat IPC: 0.55132 cumulative IPC: 0.36698 (Simulation time: 0 hr 10 min 2 sec) 
Heartbeat CPU  0 instructions:  262000000 cycles:  510130338 heartbeat IPC: 0.22030 cumulative IPC: 0.36548 (Simulation time: 0 hr 10 min 6 sec) 
Heartbeat CPU  0 instructions:  263000002 cycles:  512900063 heartbeat IPC: 0.36105 cumulative IPC: 0.36545 (Simulation time: 0 hr 10 min 9 sec) 
Heartbeat CPU  0 instructions:  264000000 cycles:  514572099 heartbeat IPC: 0.59807 cumulative IPC: 0.36632 (Simulation time: 0 hr 10 min 10 sec) 
Heartbeat CPU  0 instructions:  265000003 cycles:  516523798 heartbeat IPC: 0.51238 cumulative IPC: 0.36696 (Simulation time: 0 hr 10 min 12 sec) 
Heartbeat CPU  0 instructions:  266000002 cycles:  519397260 heartbeat IPC: 0.34801 cumulative IPC: 0.36683 (Simulation time: 0 hr 10 min 15 sec) 
Heartbeat CPU  0 instructions:  267000000 cycles:  522044384 heartbeat IPC: 0.37777 cumulative IPC: 0.36690 (Simulation time: 0 hr 10 min 18 sec) 
Heartbeat CPU  0 instructions:  268000000 cycles:  524428214 heartbeat IPC: 0.41949 cumulative IPC: 0.36717 (Simulation time: 0 hr 10 min 21 sec) 
Heartbeat CPU  0 instructions:  269000002 cycles:  526527128 heartbeat IPC: 0.47644 cumulative IPC: 0.36767 (Simulation time: 0 hr 10 min 23 sec) 
Heartbeat CPU  0 instructions:  270000002 cycles:  528898303 heartbeat IPC: 0.42173 cumulative IPC: 0.36795 (Simulation time: 0 hr 10 min 26 sec) 
Heartbeat CPU  0 instructions:  271000003 cycles:  533815221 heartbeat IPC: 0.20338 cumulative IPC: 0.36622 (Simulation time: 0 hr 10 min 31 sec) 
Heartbeat CPU  0 instructions:  272000000 cycles:  535790580 heartbeat IPC: 0.50624 cumulative IPC: 0.36681 (Simulation time: 0 hr 10 min 32 sec) 
Heartbeat CPU  0 instructions:  273000003 cycles:  537375458 heartbeat IPC: 0.63097 cumulative IPC: 0.36770 (Simulation time: 0 hr 10 min 34 sec) 
Heartbeat CPU  0 instructions:  274000002 cycles:  539643432 heartbeat IPC: 0.44092 cumulative IPC: 0.36805 (Simulation time: 0 hr 10 min 36 sec) 
Heartbeat CPU  0 instructions:  275000000 cycles:  542229664 heartbeat IPC: 0.38666 cumulative IPC: 0.36815 (Simulation time: 0 hr 10 min 39 sec) 
Heartbeat CPU  0 instructions:  276000000 cycles:  545036194 heartbeat IPC: 0.35631 cumulative IPC: 0.36808 (Simulation time: 0 hr 10 min 42 sec) 
Heartbeat CPU  0 instructions:  277000001 cycles:  547534238 heartbeat IPC: 0.40031 cumulative IPC: 0.36825 (Simulation time: 0 hr 10 min 45 sec) 
Heartbeat CPU  0 instructions:  278000000 cycles:  549307466 heartbeat IPC: 0.56394 cumulative IPC: 0.36897 (Simulation time: 0 hr 10 min 48 sec) 
Heartbeat CPU  0 instructions:  279000000 cycles:  552591219 heartbeat IPC: 0.30453 cumulative IPC: 0.36853 (Simulation time: 0 hr 10 min 52 sec) 
Heartbeat CPU  0 instructions:  280000000 cycles:  556887353 heartbeat IPC: 0.23277 cumulative IPC: 0.36734 (Simulation time: 0 hr 10 min 55 sec) 
Heartbeat CPU  0 instructions:  281000000 cycles:  558675419 heartbeat IPC: 0.55926 cumulative IPC: 0.36804 (Simulation time: 0 hr 10 min 57 sec) 
Heartbeat CPU  0 instructions:  282000000 cycles:  560189482 heartbeat IPC: 0.66047 cumulative IPC: 0.36893 (Simulation time: 0 hr 10 min 59 sec) 
Heartbeat CPU  0 instructions:  283000003 cycles:  562849716 heartbeat IPC: 0.37591 cumulative IPC: 0.36897 (Simulation time: 0 hr 11 min 1 sec) 
Heartbeat CPU  0 instructions:  284000000 cycles:  564971708 heartbeat IPC: 0.47125 cumulative IPC: 0.36941 (Simulation time: 0 hr 11 min 4 sec) 
Heartbeat CPU  0 instructions:  285000001 cycles:  567889502 heartbeat IPC: 0.34273 cumulative IPC: 0.36925 (Simulation time: 0 hr 11 min 7 sec) 
Heartbeat CPU  0 instructions:  286000000 cycles:  570472666 heartbeat IPC: 0.38712 cumulative IPC: 0.36934 (Simulation time: 0 hr 11 min 10 sec) 
Heartbeat CPU  0 instructions:  287000003 cycles:  572128200 heartbeat IPC: 0.60404 cumulative IPC: 0.37011 (Simulation time: 0 hr 11 min 12 sec) 
Heartbeat CPU  0 instructions:  288000000 cycles:  575924671 heartbeat IPC: 0.26340 cumulative IPC: 0.36932 (Simulation time: 0 hr 11 min 16 sec) 
Heartbeat CPU  0 instructions:  289000000 cycles:  579844497 heartbeat IPC: 0.25511 cumulative IPC: 0.36844 (Simulation time: 0 hr 11 min 20 sec) 
Heartbeat CPU  0 instructions:  290000000 cycles:  581586518 heartbeat IPC: 0.57405 cumulative IPC: 0.36914 (Simulation time: 0 hr 11 min 21 sec) 
Heartbeat CPU  0 instructions:  291000000 cycles:  583016271 heartbeat IPC: 0.69942 cumulative IPC: 0.37006 (Simulation time: 0 hr 11 min 23 sec) 
Heartbeat CPU  0 instructions:  292000000 cycles:  586098113 heartbeat IPC: 0.32448 cumulative IPC: 0.36978 (Simulation time: 0 hr 11 min 26 sec) 
Heartbeat CPU  0 instructions:  293000002 cycles:  588639308 heartbeat IPC: 0.39352 cumulative IPC: 0.36990 (Simulation time: 0 hr 11 min 29 sec) 
Heartbeat CPU  0 instructions:  294000001 cycles:  590837618 heartbeat IPC: 0.45489 cumulative IPC: 0.37026 (Simulation time: 0 hr 11 min 32 sec) 
Heartbeat CPU  0 instructions:  295000003 cycles:  593538050 heartbeat IPC: 0.37031 cumulative IPC: 0.37026 (Simulation time: 0 hr 11 min 34 sec) 
Heartbeat CPU  0 instructions:  296000000 cycles:  595012490 heartbeat IPC: 0.67822 cumulative IPC: 0.37112 (Simulation time: 0 hr 11 min 37 sec) 
Heartbeat CPU  0 instructions:  297000001 cycles:  599460384 heartbeat IPC: 0.22483 cumulative IPC: 0.36990 (Simulation time: 0 hr 11 min 42 sec) 
Heartbeat CPU  0 instructions:  298000000 cycles:  602704324 heartbeat IPC: 0.30827 cumulative IPC: 0.36952 (Simulation time: 0 hr 11 min 45 sec) 
Heartbeat CPU  0 instructions:  299000000 cycles:  604414515 heartbeat IPC: 0.58473 cumulative IPC: 0.37021 (Simulation time: 0 hr 11 min 47 sec) 
Heartbeat CPU  0 instructions:  300000000 cycles:  606227635 heartbeat IPC: 0.55154 cumulative IPC: 0.37082 (Simulation time: 0 hr 11 min 49 sec) 
Heartbeat CPU  0 instructions:  301000001 cycles:  608607072 heartbeat IPC: 0.42027 cumulative IPC: 0.37103 (Simulation time: 0 hr 11 min 51 sec) 
Heartbeat CPU  0 instructions:  302000001 cycles:  611293554 heartbeat IPC: 0.37223 cumulative IPC: 0.37104 (Simulation time: 0 hr 11 min 54 sec) 
Heartbeat CPU  0 instructions:  303000002 cycles:  613859391 heartbeat IPC: 0.38974 cumulative IPC: 0.37113 (Simulation time: 0 hr 11 min 57 sec) 
Heartbeat CPU  0 instructions:  304000000 cycles:  616093161 heartbeat IPC: 0.44767 cumulative IPC: 0.37144 (Simulation time: 0 hr 12 min 0 sec) 
Heartbeat CPU  0 instructions:  305000003 cycles:  618884702 heartbeat IPC: 0.35823 cumulative IPC: 0.37137 (Simulation time: 0 hr 12 min 2 sec) 
Heartbeat CPU  0 instructions:  306000003 cycles:  620479919 heartbeat IPC: 0.62687 cumulative IPC: 0.37211 (Simulation time: 0 hr 12 min 5 sec) 
Heartbeat CPU  0 instructions:  307000001 cycles:  624962596 heartbeat IPC: 0.22308 cumulative IPC: 0.37091 (Simulation time: 0 hr 12 min 10 sec) 
Heartbeat CPU  0 instructions:  308000000 cycles:  628103723 heartbeat IPC: 0.31836 cumulative IPC: 0.37062 (Simulation time: 0 hr 12 min 13 sec) 
Heartbeat CPU  0 instructions:  309000001 cycles:  629816511 heartbeat IPC: 0.58384 cumulative IPC: 0.37127 (Simulation time: 0 hr 12 min 14 sec) 
Heartbeat CPU  0 instructions:  310000003 cycles:  631653238 heartbeat IPC: 0.54445 cumulative IPC: 0.37183 (Simulation time: 0 hr 12 min 16 sec) 
Heartbeat CPU  0 instructions:  311000001 cycles:  633941421 heartbeat IPC: 0.43703 cumulative IPC: 0.37209 (Simulation time: 0 hr 12 min 19 sec) 
Heartbeat CPU  0 instructions:  312000000 cycles:  636718936 heartbeat IPC: 0.36003 cumulative IPC: 0.37203 (Simulation time: 0 hr 12 min 22 sec) 
Heartbeat CPU  0 instructions:  313000000 cycles:  639288917 heartbeat IPC: 0.38911 cumulative IPC: 0.37211 (Simulation time: 0 hr 12 min 25 sec) 
Heartbeat CPU  0 instructions:  314000003 cycles:  640944262 heartbeat IPC: 0.60411 cumulative IPC: 0.37278 (Simulation time: 0 hr 12 min 27 sec) 
Heartbeat CPU  0 instructions:  315000000 cycles:  646508117 heartbeat IPC: 0.17973 cumulative IPC: 0.37093 (Simulation time: 0 hr 12 min 32 sec) 
Heartbeat CPU  0 instructions:  316000000 cycles:  652082369 heartbeat IPC: 0.17940 cumulative IPC: 0.36910 (Simulation time: 0 hr 12 min 36 sec) 
Heartbeat CPU  0 instructions:  317000002 cycles:  656167436 heartbeat IPC: 0.24479 cumulative IPC: 0.36824 (Simulation time: 0 hr 12 min 41 sec) 
Heartbeat CPU  0 instructions:  318000000 cycles:  660940763 heartbeat IPC: 0.20950 cumulative IPC: 0.36696 (Simulation time: 0 hr 12 min 45 sec) 
Heartbeat CPU  0 instructions:  319000001 cycles:  664664077 heartbeat IPC: 0.26858 cumulative IPC: 0.36635 (Simulation time: 0 hr 12 min 49 sec) 
Heartbeat CPU  0 instructions:  320000000 cycles:  667640289 heartbeat IPC: 0.33600 cumulative IPC: 0.36620 (Simulation time: 0 hr 12 min 53 sec) 
Heartbeat CPU  0 instructions:  321000003 cycles:  671766472 heartbeat IPC: 0.24236 cumulative IPC: 0.36536 (Simulation time: 0 hr 12 min 56 sec) 
Heartbeat CPU  0 instructions:  322000001 cycles:  675321977 heartbeat IPC: 0.28125 cumulative IPC: 0.36486 (Simulation time: 0 hr 12 min 59 sec) 
Heartbeat CPU  0 instructions:  323000002 cycles:  678998851 heartbeat IPC: 0.27197 cumulative IPC: 0.36431 (Simulation time: 0 hr 13 min 2 sec) 
Heartbeat CPU  0 instructions:  324000000 cycles:  681792852 heartbeat IPC: 0.35791 cumulative IPC: 0.36428 (Simulation time: 0 hr 13 min 5 sec) 
Heartbeat CPU  0 instructions:  325000000 cycles:  684328387 heartbeat IPC: 0.39439 cumulative IPC: 0.36440 (Simulation time: 0 hr 13 min 8 sec) 
Heartbeat CPU  0 instructions:  326000002 cycles:  686367179 heartbeat IPC: 0.49049 cumulative IPC: 0.36482 (Simulation time: 0 hr 13 min 11 sec) 
Heartbeat CPU  0 instructions:  327000001 cycles:  688683090 heartbeat IPC: 0.43180 cumulative IPC: 0.36507 (Simulation time: 0 hr 13 min 14 sec) 
Heartbeat CPU  0 instructions:  328000000 cycles:  690051731 heartbeat IPC: 0.73065 cumulative IPC: 0.36587 (Simulation time: 0 hr 13 min 16 sec) 
Heartbeat CPU  0 instructions:  329000001 cycles:  691749777 heartbeat IPC: 0.58891 cumulative IPC: 0.36647 (Simulation time: 0 hr 13 min 18 sec) 
Heartbeat CPU  0 instructions:  330000000 cycles:  694894572 heartbeat IPC: 0.31799 cumulative IPC: 0.36623 (Simulation time: 0 hr 13 min 22 sec) 
Heartbeat CPU  0 instructions:  331000000 cycles:  697476661 heartbeat IPC: 0.38728 cumulative IPC: 0.36632 (Simulation time: 0 hr 13 min 25 sec) 
Heartbeat CPU  0 instructions:  332000000 cycles:  699732970 heartbeat IPC: 0.44320 cumulative IPC: 0.36659 (Simulation time: 0 hr 13 min 28 sec) 
Heartbeat CPU  0 instructions:  333000003 cycles:  702152269 heartbeat IPC: 0.41334 cumulative IPC: 0.36677 (Simulation time: 0 hr 13 min 31 sec) 
Heartbeat CPU  0 instructions:  334000000 cycles:  703890936 heartbeat IPC: 0.57515 cumulative IPC: 0.36734 (Simulation time: 0 hr 13 min 34 sec) 
Heartbeat CPU  0 instructions:  335000001 cycles:  707328210 heartbeat IPC: 0.29093 cumulative IPC: 0.36693 (Simulation time: 0 hr 13 min 37 sec) 
Heartbeat CPU  0 instructions:  336000000 cycles:  711618998 heartbeat IPC: 0.23306 cumulative IPC: 0.36604 (Simulation time: 0 hr 13 min 41 sec) 
Heartbeat CPU  0 instructions:  337000000 cycles:  713414403 heartbeat IPC: 0.55698 cumulative IPC: 0.36657 (Simulation time: 0 hr 13 min 43 sec) 
Heartbeat CPU  0 instructions:  338000000 cycles:  714924678 heartbeat IPC: 0.66213 cumulative IPC: 0.36726 (Simulation time: 0 hr 13 min 45 sec) 
Heartbeat CPU  0 instructions:  339000001 cycles:  717388601 heartbeat IPC: 0.40586 cumulative IPC: 0.36740 (Simulation time: 0 hr 13 min 47 sec) 
Heartbeat CPU  0 instructions:  340000000 cycles:  719635833 heartbeat IPC: 0.44499 cumulative IPC: 0.36767 (Simulation time: 0 hr 13 min 49 sec) 
Heartbeat CPU  0 instructions:  341000003 cycles:  722245503 heartbeat IPC: 0.38319 cumulative IPC: 0.36773 (Simulation time: 0 hr 13 min 52 sec) 
Heartbeat CPU  0 instructions:  342000001 cycles:  725009339 heartbeat IPC: 0.36182 cumulative IPC: 0.36771 (Simulation time: 0 hr 13 min 55 sec) 
Heartbeat CPU  0 instructions:  343000003 cycles:  727792500 heartbeat IPC: 0.35930 cumulative IPC: 0.36767 (Simulation time: 0 hr 13 min 58 sec) 
Heartbeat CPU  0 instructions:  344000000 cycles:  729451741 heartbeat IPC: 0.60268 cumulative IPC: 0.36826 (Simulation time: 0 hr 14 min 1 sec) 
Heartbeat CPU  0 instructions:  345000001 cycles:  733404484 heartbeat IPC: 0.25299 cumulative IPC: 0.36758 (Simulation time: 0 hr 14 min 5 sec) 
Heartbeat CPU  0 instructions:  346000000 cycles:  737250738 heartbeat IPC: 0.25999 cumulative IPC: 0.36696 (Simulation time: 0 hr 14 min 9 sec) 
Heartbeat CPU  0 instructions:  347000000 cycles:  738995516 heartbeat IPC: 0.57314 cumulative IPC: 0.36749 (Simulation time: 0 hr 14 min 10 sec) 
Heartbeat CPU  0 instructions:  348000000 cycles:  740469386 heartbeat IPC: 0.67849 cumulative IPC: 0.36818 (Simulation time: 0 hr 14 min 12 sec) 
Heartbeat CPU  0 instructions:  349000000 cycles:  743186901 heartbeat IPC: 0.36798 cumulative IPC: 0.36817 (Simulation time: 0 hr 14 min 15 sec) 
Heartbeat CPU  0 instructions:  350000000 cycles:  745515967 heartbeat IPC: 0.42936 cumulative IPC: 0.36838 (Simulation time: 0 hr 14 min 17 sec) 
Heartbeat CPU  0 instructions:  351000000 cycles:  747911663 heartbeat IPC: 0.41742 cumulative IPC: 0.36856 (Simulation time: 0 hr 14 min 20 sec) 
Heartbeat CPU  0 instructions:  352000000 cycles:  750428966 heartbeat IPC: 0.39725 cumulative IPC: 0.36866 (Simulation time: 0 hr 14 min 24 sec) 
Heartbeat CPU  0 instructions:  353000001 cycles:  753158857 heartbeat IPC: 0.36632 cumulative IPC: 0.36865 (Simulation time: 0 hr 14 min 26 sec) 
Heartbeat CPU  0 instructions:  354000001 cycles:  754769385 heartbeat IPC: 0.62091 cumulative IPC: 0.36924 (Simulation time: 0 hr 14 min 29 sec) 
Heartbeat CPU  0 instructions:  355000002 cycles:  758778824 heartbeat IPC: 0.24941 cumulative IPC: 0.36855 (Simulation time: 0 hr 14 min 33 sec) 
Heartbeat CPU  0 instructions:  356000000 cycles:  762554928 heartbeat IPC: 0.26482 cumulative IPC: 0.36799 (Simulation time: 0 hr 14 min 36 sec) 
Heartbeat CPU  0 instructions:  357000002 cycles:  764286102 heartbeat IPC: 0.57764 cumulative IPC: 0.36851 (Simulation time: 0 hr 14 min 37 sec) 
Heartbeat CPU  0 instructions:  358000000 cycles:  765815158 heartbeat IPC: 0.65400 cumulative IPC: 0.36913 (Simulation time: 0 hr 14 min 39 sec) 
Heartbeat CPU  0 instructions:  359000001 cycles:  768481470 heartbeat IPC: 0.37505 cumulative IPC: 0.36915 (Simulation time: 0 hr 14 min 42 sec) 
Heartbeat CPU  0 instructions:  360000000 cycles:  770870948 heartbeat IPC: 0.41850 cumulative IPC: 0.36932 (Simulation time: 0 hr 14 min 44 sec) 
Heartbeat CPU  0 instructions:  361000003 cycles:  773319634 heartbeat IPC: 0.40838 cumulative IPC: 0.36946 (Simulation time: 0 hr 14 min 47 sec) 
Heartbeat CPU  0 instructions:  362000000 cycles:  775708044 heartbeat IPC: 0.41869 cumulative IPC: 0.36962 (Simulation time: 0 hr 14 min 50 sec) 
Heartbeat CPU  0 instructions:  363000000 cycles:  778588088 heartbeat IPC: 0.34722 cumulative IPC: 0.36953 (Simulation time: 0 hr 14 min 53 sec) 
Heartbeat CPU  0 instructions:  364000000 cycles:  780065881 heartbeat IPC: 0.67668 cumulative IPC: 0.37017 (Simulation time: 0 hr 14 min 55 sec) 
Heartbeat CPU  0 instructions:  365000003 cycles:  784168817 heartbeat IPC: 0.24373 cumulative IPC: 0.36945 (Simulation time: 0 hr 15 min 0 sec) 
Heartbeat CPU  0 instructions:  366000000 cycles:  787911242 heartbeat IPC: 0.26721 cumulative IPC: 0.36891 (Simulation time: 0 hr 15 min 3 sec) 
Heartbeat CPU  0 instructions:  367000001 cycles:  789640884 heartbeat IPC: 0.57815 cumulative IPC: 0.36942 (Simulation time: 0 hr 15 min 5 sec) 
Heartbeat CPU  0 instructions:  368000000 cycles:  791222101 heartbeat IPC: 0.63242 cumulative IPC: 0.36999 (Simulation time: 0 hr 15 min 6 sec) 
Heartbeat CPU  0 instructions:  369000001 cycles:  793822483 heartbeat IPC: 0.38456 cumulative IPC: 0.37004 (Simulation time: 0 hr 15 min 9 sec) 
Heartbeat CPU  0 instructions:  370000003 cycles:  796241618 heartbeat IPC: 0.41337 cumulative IPC: 0.37019 (Simulation time: 0 hr 15 min 12 sec) 
Heartbeat CPU  0 instructions:  371000001 cycles:  798745878 heartbeat IPC: 0.39932 cumulative IPC: 0.37029 (Simulation time: 0 hr 15 min 15 sec) 
Heartbeat CPU  0 instructions:  372000000 cycles:  801072688 heartbeat IPC: 0.42977 cumulative IPC: 0.37047 (Simulation time: 0 hr 15 min 17 sec) 
Heartbeat CPU  0 instructions:  373000003 cycles:  803960185 heartbeat IPC: 0.34632 cumulative IPC: 0.37038 (Simulation time: 0 hr 15 min 20 sec) 
Heartbeat CPU  0 instructions:  374000001 cycles:  805364665 heartbeat IPC: 0.71201 cumulative IPC: 0.37103 (Simulation time: 0 hr 15 min 23 sec) 
Heartbeat CPU  0 instructions:  375000003 cycles:  809559278 heartbeat IPC: 0.23840 cumulative IPC: 0.37028 (Simulation time: 0 hr 15 min 27 sec) 
Heartbeat CPU  0 instructions:  376000000 cycles:  813224296 heartbeat IPC: 0.27285 cumulative IPC: 0.36980 (Simulation time: 0 hr 15 min 30 sec) 
Heartbeat CPU  0 instructions:  377000000 cycles:  814942794 heartbeat IPC: 0.58190 cumulative IPC: 0.37029 (Simulation time: 0 hr 15 min 32 sec) 
Heartbeat CPU  0 instructions:  378000003 cycles:  816596354 heartbeat IPC: 0.60476 cumulative IPC: 0.37081 (Simulation time: 0 hr 15 min 34 sec) 
Heartbeat CPU  0 instructions:  379000002 cycles:  819132351 heartbeat IPC: 0.39432 cumulative IPC: 0.37088 (Simulation time: 0 hr 15 min 37 sec) 
Heartbeat CPU  0 instructions:  380000000 cycles:  821614096 heartbeat IPC: 0.40294 cumulative IPC: 0.37099 (Simulation time: 0 hr 15 min 39 sec) 
Heartbeat CPU  0 instructions:  381000000 cycles:  824158214 heartbeat IPC: 0.39306 cumulative IPC: 0.37106 (Simulation time: 0 hr 15 min 42 sec) 
Heartbeat CPU  0 instructions:  382000003 cycles:  826453610 heartbeat IPC: 0.43566 cumulative IPC: 0.37126 (Simulation time: 0 hr 15 min 45 sec) 
Heartbeat CPU  0 instructions:  383000001 cycles:  829327918 heartbeat IPC: 0.34791 cumulative IPC: 0.37117 (Simulation time: 0 hr 15 min 47 sec) 
Heartbeat CPU  0 instructions:  384000000 cycles:  830699444 heartbeat IPC: 0.72911 cumulative IPC: 0.37181 (Simulation time: 0 hr 15 min 50 sec) 
Heartbeat CPU  0 instructions:  385000000 cycles:  835106703 heartbeat IPC: 0.22690 cumulative IPC: 0.37098 (Simulation time: 0 hr 15 min 54 sec) 
Heartbeat CPU  0 instructions:  386000002 cycles:  838566009 heartbeat IPC: 0.28908 cumulative IPC: 0.37062 (Simulation time: 0 hr 15 min 57 sec) 
Heartbeat CPU  0 instructions:  387000000 cycles:  840285033 heartbeat IPC: 0.58172 cumulative IPC: 0.37109 (Simulation time: 0 hr 15 min 59 sec) 
Heartbeat CPU  0 instructions:  388000000 cycles:  842001096 heartbeat IPC: 0.58273 cumulative IPC: 0.37155 (Simulation time: 0 hr 16 min 0 sec) 
Heartbeat CPU  0 instructions:  389000001 cycles:  844471388 heartbeat IPC: 0.40481 cumulative IPC: 0.37166 (Simulation time: 0 hr 16 min 3 sec) 
Heartbeat CPU  0 instructions:  390000002 cycles:  847034026 heartbeat IPC: 0.39022 cumulative IPC: 0.37172 (Simulation time: 0 hr 16 min 5 sec) 
Heartbeat CPU  0 instructions:  391000003 cycles:  849590322 heartbeat IPC: 0.39119 cumulative IPC: 0.37178 (Simulation time: 0 hr 16 min 8 sec) 
Heartbeat CPU  0 instructions:  392000000 cycles:  851867830 heartbeat IPC: 0.43908 cumulative IPC: 0.37198 (Simulation time: 0 hr 16 min 11 sec) 
Heartbeat CPU  0 instructions:  393000003 cycles:  854658800 heartbeat IPC: 0.35830 cumulative IPC: 0.37193 (Simulation time: 0 hr 16 min 14 sec) 
Heartbeat CPU  0 instructions:  394000002 cycles:  855988583 heartbeat IPC: 0.75200 cumulative IPC: 0.37257 (Simulation time: 0 hr 16 min 16 sec) 
Heartbeat CPU  0 instructions:  395000002 cycles:  860550537 heartbeat IPC: 0.21920 cumulative IPC: 0.37169 (Simulation time: 0 hr 16 min 20 sec) 
Heartbeat CPU  0 instructions:  396000000 cycles:  863868945 heartbeat IPC: 0.30135 cumulative IPC: 0.37140 (Simulation time: 0 hr 16 min 23 sec) 
Heartbeat CPU  0 instructions:  397000000 cycles:  865582183 heartbeat IPC: 0.58369 cumulative IPC: 0.37185 (Simulation time: 0 hr 16 min 24 sec) 
Heartbeat CPU  0 instructions:  398000000 cycles:  867356159 heartbeat IPC: 0.56371 cumulative IPC: 0.37228 (Simulation time: 0 hr 16 min 26 sec) 
Heartbeat CPU  0 instructions:  399000001 cycles:  869745688 heartbeat IPC: 0.41849 cumulative IPC: 0.37241 (Simulation time: 0 hr 16 min 29 sec) 
Heartbeat CPU  0 instructions:  400000000 cycles:  872392078 heartbeat IPC: 0.37787 cumulative IPC: 0.37243 (Simulation time: 0 hr 16 min 31 sec) 
Heartbeat CPU  0 instructions:  401000000 cycles:  874961624 heartbeat IPC: 0.38917 cumulative IPC: 0.37249 (Simulation time: 0 hr 16 min 34 sec) 
Heartbeat CPU  0 instructions:  402000000 cycles:  877210695 heartbeat IPC: 0.44463 cumulative IPC: 0.37269 (Simulation time: 0 hr 16 min 37 sec) 
Heartbeat CPU  0 instructions:  403000000 cycles:  879994753 heartbeat IPC: 0.35919 cumulative IPC: 0.37264 (Simulation time: 0 hr 16 min 40 sec) 
Heartbeat CPU  0 instructions:  404000000 cycles:  881558034 heartbeat IPC: 0.63968 cumulative IPC: 0.37315 (Simulation time: 0 hr 16 min 42 sec) 
Heartbeat CPU  0 instructions:  405000002 cycles:  886001940 heartbeat IPC: 0.22503 cumulative IPC: 0.37235 (Simulation time: 0 hr 16 min 47 sec) 
Heartbeat CPU  0 instructions:  406000000 cycles:  889201785 heartbeat IPC: 0.31251 cumulative IPC: 0.37212 (Simulation time: 0 hr 16 min 49 sec) 
Heartbeat CPU  0 instructions:  407000000 cycles:  890906759 heartbeat IPC: 0.58652 cumulative IPC: 0.37256 (Simulation time: 0 hr 16 min 51 sec) 
Heartbeat CPU  0 instructions:  408000000 cycles:  892726776 heartbeat IPC: 0.54945 cumulative IPC: 0.37295 (Simulation time: 0 hr 16 min 53 sec) 
Heartbeat CPU  0 instructions:  409000002 cycles:  895054147 heartbeat IPC: 0.42967 cumulative IPC: 0.37311 (Simulation time: 0 hr 16 min 56 sec) 
Heartbeat CPU  0 instructions:  410000000 cycles:  897786493 heartbeat IPC: 0.36599 cumulative IPC: 0.37309 (Simulation time: 0 hr 16 min 58 sec) 
Heartbeat CPU  0 instructions:  411000002 cycles:  900342311 heartbeat IPC: 0.39126 cumulative IPC: 0.37314 (Simulation time: 0 hr 17 min 1 sec) 
Heartbeat CPU  0 instructions:  412000000 cycles:  902556552 heartbeat IPC: 0.45162 cumulative IPC: 0.37335 (Simulation time: 0 hr 17 min 4 sec) 
Heartbeat CPU  0 instructions:  413000001 cycles:  905317113 heartbeat IPC: 0.36225 cumulative IPC: 0.37331 (Simulation time: 0 hr 17 min 7 sec) 
Heartbeat CPU  0 instructions:  414000000 cycles:  906976722 heartbeat IPC: 0.60255 cumulative IPC: 0.37377 (Simulation time: 0 hr 17 min 10 sec) 
Heartbeat CPU  0 instructions:  415000003 cycles:  911440827 heartbeat IPC: 0.22401 cumulative IPC: 0.37297 (Simulation time: 0 hr 17 min 15 sec) 
Heartbeat CPU  0 instructions:  416000000 cycles:  914501828 heartbeat IPC: 0.32669 cumulative IPC: 0.37281 (Simulation time: 0 hr 17 min 17 sec) 
Heartbeat CPU  0 instructions:  417000000 cycles:  916195865 heartbeat IPC: 0.59031 cumulative IPC: 0.37324 (Simulation time: 0 hr 17 min 19 sec) 
Heartbeat CPU  0 instructions:  418000000 cycles:  918064586 heartbeat IPC: 0.53513 cumulative IPC: 0.37360 (Simulation time: 0 hr 17 min 21 sec) 
Heartbeat CPU  0 instructions:  419000001 cycles:  920310950 heartbeat IPC: 0.44516 cumulative IPC: 0.37378 (Simulation time: 0 hr 17 min 23 sec) 
Heartbeat CPU  0 instructions:  420000000 cycles:  923152990 heartbeat IPC: 0.35186 cumulative IPC: 0.37371 (Simulation time: 0 hr 17 min 26 sec) 
Heartbeat CPU  0 instructions:  421000001 cycles:  925691600 heartbeat IPC: 0.39392 cumulative IPC: 0.37377 (Simulation time: 0 hr 17 min 29 sec) 
Heartbeat CPU  0 instructions:  422000003 cycles:  927897041 heartbeat IPC: 0.45342 cumulative IPC: 0.37398 (Simulation time: 0 hr 17 min 32 sec) 
Heartbeat CPU  0 instructions:  423000003 cycles:  930636631 heartbeat IPC: 0.36502 cumulative IPC: 0.37395 (Simulation time: 0 hr 17 min 35 sec) 
Heartbeat CPU  0 instructions:  424000000 cycles:  932370191 heartbeat IPC: 0.57685 cumulative IPC: 0.37435 (Simulation time: 0 hr 17 min 37 sec) 
Heartbeat CPU  0 instructions:  425000001 cycles:  936871120 heartbeat IPC: 0.22218 cumulative IPC: 0.37357 (Simulation time: 0 hr 17 min 42 sec) 
Heartbeat CPU  0 instructions:  426000002 cycles:  939818160 heartbeat IPC: 0.33932 cumulative IPC: 0.37345 (Simulation time: 0 hr 17 min 44 sec) 
Heartbeat CPU  0 instructions:  427000002 cycles:  941503742 heartbeat IPC: 0.59327 cumulative IPC: 0.37387 (Simulation time: 0 hr 17 min 46 sec) 
Heartbeat CPU  0 instructions:  428000000 cycles:  943404724 heartbeat IPC: 0.52604 cumulative IPC: 0.37420 (Simulation time: 0 hr 17 min 47 sec) 
Heartbeat CPU  0 instructions:  429000001 cycles:  945604416 heartbeat IPC: 0.45461 cumulative IPC: 0.37441 (Simulation time: 0 hr 17 min 50 sec) 
Heartbeat CPU  0 instructions:  430000002 cycles:  948503175 heartbeat IPC: 0.34498 cumulative IPC: 0.37431 (Simulation time: 0 hr 17 min 52 sec) 
Heartbeat CPU  0 instructions:  431000003 cycles:  951026396 heartbeat IPC: 0.39632 cumulative IPC: 0.37437 (Simulation time: 0 hr 17 min 56 sec) 
Heartbeat CPU  0 instructions:  432000000 cycles:  952595183 heartbeat IPC: 0.63743 cumulative IPC: 0.37484 (Simulation time: 0 hr 17 min 58 sec) 
Heartbeat CPU  0 instructions:  433000002 cycles:  958597817 heartbeat IPC: 0.16659 cumulative IPC: 0.37344 (Simulation time: 0 hr 18 min 3 sec) 
Heartbeat CPU  0 instructions:  434000000 cycles:  963758566 heartbeat IPC: 0.19377 cumulative IPC: 0.37240 (Simulation time: 0 hr 18 min 7 sec) 
Heartbeat CPU  0 instructions:  435000001 cycles:  967935480 heartbeat IPC: 0.23941 cumulative IPC: 0.37179 (Simulation time: 0 hr 18 min 12 sec) 
Heartbeat CPU  0 instructions:  436000000 cycles:  972769763 heartbeat IPC: 0.20686 cumulative IPC: 0.37091 (Simulation time: 0 hr 18 min 16 sec) 
Heartbeat CPU  0 instructions:  437000003 cycles:  976387681 heartbeat IPC: 0.27640 cumulative IPC: 0.37053 (Simulation time: 0 hr 18 min 21 sec) 
Heartbeat CPU  0 instructions:  438000001 cycles:  979371833 heartbeat IPC: 0.33510 cumulative IPC: 0.37041 (Simulation time: 0 hr 18 min 24 sec) 
Heartbeat CPU  0 instructions:  439000000 cycles:  983544606 heartbeat IPC: 0.23965 cumulative IPC: 0.36982 (Simulation time: 0 hr 18 min 28 sec) 
Heartbeat CPU  0 instructions:  440000000 cycles:  987125256 heartbeat IPC: 0.27928 cumulative IPC: 0.36947 (Simulation time: 0 hr 18 min 31 sec) 
Heartbeat CPU  0 instructions:  441000000 cycles:  990759366 heartbeat IPC: 0.27517 cumulative IPC: 0.36909 (Simulation time: 0 hr 18 min 34 sec) 
Heartbeat CPU  0 instructions:  442000000 cycles:  993505487 heartbeat IPC: 0.36415 cumulative IPC: 0.36908 (Simulation time: 0 hr 18 min 37 sec) 
Heartbeat CPU  0 instructions:  443000002 cycles:  996038896 heartbeat IPC: 0.39473 cumulative IPC: 0.36915 (Simulation time: 0 hr 18 min 39 sec) 
Heartbeat CPU  0 instructions:  444000000 cycles:  998011815 heartbeat IPC: 0.50686 cumulative IPC: 0.36944 (Simulation time: 0 hr 18 min 42 sec) 
Heartbeat CPU  0 instructions:  445000002 cycles: 1000377563 heartbeat IPC: 0.42270 cumulative IPC: 0.36958 (Simulation time: 0 hr 18 min 45 sec) 
Heartbeat CPU  0 instructions:  446000003 cycles: 1001772438 heartbeat IPC: 0.71691 cumulative IPC: 0.37010 (Simulation time: 0 hr 18 min 47 sec) 
Heartbeat CPU  0 instructions:  447000001 cycles: 1003427399 heartbeat IPC: 0.60424 cumulative IPC: 0.37051 (Simulation time: 0 hr 18 min 49 sec) 
Heartbeat CPU  0 instructions:  448000000 cycles: 1006647667 heartbeat IPC: 0.31053 cumulative IPC: 0.37030 (Simulation time: 0 hr 18 min 53 sec) 
Heartbeat CPU  0 instructions:  449000003 cycles: 1009234431 heartbeat IPC: 0.38658 cumulative IPC: 0.37035 (Simulation time: 0 hr 18 min 56 sec) 
Heartbeat CPU  0 instructions:  450000000 cycles: 1011450524 heartbeat IPC: 0.45124 cumulative IPC: 0.37054 (Simulation time: 0 hr 18 min 58 sec) 
Heartbeat CPU  0 instructions:  451000003 cycles: 1013917504 heartbeat IPC: 0.40536 cumulative IPC: 0.37063 (Simulation time: 0 hr 19 min 1 sec) 
Heartbeat CPU  0 instructions:  452000000 cycles: 1015636348 heartbeat IPC: 0.58178 cumulative IPC: 0.37101 (Simulation time: 0 hr 19 min 3 sec) 
Heartbeat CPU  0 instructions:  453000003 cycles: 1019200742 heartbeat IPC: 0.28055 cumulative IPC: 0.37067 (Simulation time: 0 hr 19 min 7 sec) 
Heartbeat CPU  0 instructions:  454000000 cycles: 1023441820 heartbeat IPC: 0.23579 cumulative IPC: 0.37007 (Simulation time: 0 hr 19 min 11 sec) 
Heartbeat CPU  0 instructions:  455000000 cycles: 1025202867 heartbeat IPC: 0.56784 cumulative IPC: 0.37044 (Simulation time: 0 hr 19 min 12 sec) 
Heartbeat CPU  0 instructions:  456000000 cycles: 1026703698 heartbeat IPC: 0.66630 cumulative IPC: 0.37090 (Simulation time: 0 hr 19 min 14 sec) 
Heartbeat CPU  0 instructions:  457000002 cycles: 1029202751 heartbeat IPC: 0.40015 cumulative IPC: 0.37098 (Simulation time: 0 hr 19 min 16 sec) 
Heartbeat CPU  0 instructions:  458000002 cycles: 1031475774 heartbeat IPC: 0.43994 cumulative IPC: 0.37114 (Simulation time: 0 hr 19 min 18 sec) 
Heartbeat CPU  0 instructions:  459000000 cycles: 1034016929 heartbeat IPC: 0.39352 cumulative IPC: 0.37120 (Simulation time: 0 hr 19 min 21 sec) 
Heartbeat CPU  0 instructions:  460000000 cycles: 1036816533 heartbeat IPC: 0.35719 cumulative IPC: 0.37116 (Simulation time: 0 hr 19 min 24 sec) 
Heartbeat CPU  0 instructions:  461000001 cycles: 1039662589 heartbeat IPC: 0.35136 cumulative IPC: 0.37110 (Simulation time: 0 hr 19 min 27 sec) 
Heartbeat CPU  0 instructions:  462000001 cycles: 1041260337 heartbeat IPC: 0.62588 cumulative IPC: 0.37152 (Simulation time: 0 hr 19 min 29 sec) 
Heartbeat CPU  0 instructions:  463000000 cycles: 1045294652 heartbeat IPC: 0.24787 cumulative IPC: 0.37101 (Simulation time: 0 hr 19 min 33 sec) 
Heartbeat CPU  0 instructions:  464000000 cycles: 1049046628 heartbeat IPC: 0.26653 cumulative IPC: 0.37061 (Simulation time: 0 hr 19 min 36 sec) 
Heartbeat CPU  0 instructions:  465000002 cycles: 1050783065 heartbeat IPC: 0.57589 cumulative IPC: 0.37097 (Simulation time: 0 hr 19 min 38 sec) 
Heartbeat CPU  0 instructions:  466000002 cycles: 1052324001 heartbeat IPC: 0.64896 cumulative IPC: 0.37141 (Simulation time: 0 hr 19 min 39 sec) 
Heartbeat CPU  0 instructions:  467000003 cycles: 1054967937 heartbeat IPC: 0.37822 cumulative IPC: 0.37142 (Simulation time: 0 hr 19 min 42 sec) 
Heartbeat CPU  0 instructions:  468000000 cycles: 1057369603 heartbeat IPC: 0.41638 cumulative IPC: 0.37153 (Simulation time: 0 hr 19 min 44 sec) 
Heartbeat CPU  0 instructions:  469000002 cycles: 1059819076 heartbeat IPC: 0.40825 cumulative IPC: 0.37162 (Simulation time: 0 hr 19 min 47 sec) 
Heartbeat CPU  0 instructions:  470000000 cycles: 1062182155 heartbeat IPC: 0.42318 cumulative IPC: 0.37175 (Simulation time: 0 hr 19 min 50 sec) 
Heartbeat CPU  0 instructions:  471000002 cycles: 1065084354 heartbeat IPC: 0.34457 cumulative IPC: 0.37167 (Simulation time: 0 hr 19 min 52 sec) 
Heartbeat CPU  0 instructions:  472000000 cycles: 1066527020 heartbeat IPC: 0.69316 cumulative IPC: 0.37213 (Simulation time: 0 hr 19 min 55 sec) 
Heartbeat CPU  0 instructions:  473000003 cycles: 1070657606 heartbeat IPC: 0.24210 cumulative IPC: 0.37160 (Simulation time: 0 hr 19 min 58 sec) 
Heartbeat CPU  0 instructions:  474000001 cycles: 1074366035 heartbeat IPC: 0.26966 cumulative IPC: 0.37122 (Simulation time: 0 hr 20 min 1 sec) 
Heartbeat CPU  0 instructions:  475000000 cycles: 1076095498 heartbeat IPC: 0.57821 cumulative IPC: 0.37157 (Simulation time: 0 hr 20 min 3 sec) 
Heartbeat CPU  0 instructions:  476000000 cycles: 1077704276 heartbeat IPC: 0.62159 cumulative IPC: 0.37197 (Simulation time: 0 hr 20 min 4 sec) 
Heartbeat CPU  0 instructions:  477000003 cycles: 1080298108 heartbeat IPC: 0.38553 cumulative IPC: 0.37201 (Simulation time: 0 hr 20 min 7 sec) 
Heartbeat CPU  0 instructions:  478000000 cycles: 1082732205 heartbeat IPC: 0.41083 cumulative IPC: 0.37210 (Simulation time: 0 hr 20 min 9 sec) 
Heartbeat CPU  0 instructions:  479000001 cycles: 1085271916 heartbeat IPC: 0.39375 cumulative IPC: 0.37215 (Simulation time: 0 hr 20 min 12 sec) 
Heartbeat CPU  0 instructions:  480000000 cycles: 1087577282 heartbeat IPC: 0.43377 cumulative IPC: 0.37229 (Simulation time: 0 hr 20 min 15 sec) 
Heartbeat CPU  0 instructions:  481000002 cycles: 1090468742 heartbeat IPC: 0.34585 cumulative IPC: 0.37222 (Simulation time: 0 hr 20 min 17 sec) 
Heartbeat CPU  0 instructions:  482000003 cycles: 1091854482 heartbeat IPC: 0.72164 cumulative IPC: 0.37269 (Simulation time: 0 hr 20 min 19 sec) 
Heartbeat CPU  0 instructions:  483000000 cycles: 1096121696 heartbeat IPC: 0.23434 cumulative IPC: 0.37212 (Simulation time: 0 hr 20 min 23 sec) 
Heartbeat CPU  0 instructions:  484000000 cycles: 1099707219 heartbeat IPC: 0.27890 cumulative IPC: 0.37179 (Simulation time: 0 hr 20 min 26 sec) 
Heartbeat CPU  0 instructions:  485000000 cycles: 1101423035 heartbeat IPC: 0.58281 cumulative IPC: 0.37214 (Simulation time: 0 hr 20 min 28 sec) 
Heartbeat CPU  0 instructions:  486000003 cycles: 1103103943 heartbeat IPC: 0.59492 cumulative IPC: 0.37251 (Simulation time: 0 hr 20 min 29 sec) 
Heartbeat CPU  0 instructions:  487000000 cycles: 1105605519 heartbeat IPC: 0.39975 cumulative IPC: 0.37257 (Simulation time: 0 hr 20 min 32 sec) 
Heartbeat CPU  0 instructions:  488000000 cycles: 1108121678 heartbeat IPC: 0.39743 cumulative IPC: 0.37263 (Simulation time: 0 hr 20 min 34 sec) 
Heartbeat CPU  0 instructions:  489000000 cycles: 1110697464 heartbeat IPC: 0.38823 cumulative IPC: 0.37267 (Simulation time: 0 hr 20 min 37 sec) 
Heartbeat CPU  0 instructions:  490000002 cycles: 1112982359 heartbeat IPC: 0.43766 cumulative IPC: 0.37281 (Simulation time: 0 hr 20 min 39 sec) 
Heartbeat CPU  0 instructions:  491000002 cycles: 1115791520 heartbeat IPC: 0.35598 cumulative IPC: 0.37277 (Simulation time: 0 hr 20 min 42 sec) 
Heartbeat CPU  0 instructions:  492000000 cycles: 1117148498 heartbeat IPC: 0.73693 cumulative IPC: 0.37324 (Simulation time: 0 hr 20 min 44 sec) 
Heartbeat CPU  0 instructions:  493000001 cycles: 1121642085 heartbeat IPC: 0.22254 cumulative IPC: 0.37259 (Simulation time: 0 hr 20 min 48 sec) 
Heartbeat CPU  0 instructions:  494000000 cycles: 1125039372 heartbeat IPC: 0.29435 cumulative IPC: 0.37234 (Simulation time: 0 hr 20 min 51 sec) 
Heartbeat CPU  0 instructions:  495000000 cycles: 1126754395 heartbeat IPC: 0.58308 cumulative IPC: 0.37268 (Simulation time: 0 hr 20 min 52 sec) 
Heartbeat CPU  0 instructions:  496000000 cycles: 1128490894 heartbeat IPC: 0.57587 cumulative IPC: 0.37302 (Simulation time: 0 hr 20 min 54 sec) 
Heartbeat CPU  0 instructions:  497000000 cycles: 1130925223 heartbeat IPC: 0.41079 cumulative IPC: 0.37310 (Simulation time: 0 hr 20 min 57 sec) 
Heartbeat CPU  0 instructions:  498000000 cycles: 1133517651 heartbeat IPC: 0.38574 cumulative IPC: 0.37313 (Simulation time: 0 hr 20 min 59 sec) 
Heartbeat CPU  0 instructions:  499000000 cycles: 1136097587 heartbeat IPC: 0.38761 cumulative IPC: 0.37317 (Simulation time: 0 hr 21 min 2 sec) 
Heartbeat CPU  0 instructions:  500000000 cycles: 1138361732 heartbeat IPC: 0.44167 cumulative IPC: 0.37331 (Simulation time: 0 hr 21 min 4 sec) 
Heartbeat CPU  0 instructions:  501000003 cycles: 1141170012 heartbeat IPC: 0.35609 cumulative IPC: 0.37327 (Simulation time: 0 hr 21 min 7 sec) 
Heartbeat CPU  0 instructions:  502000000 cycles: 1142653219 heartbeat IPC: 0.67421 cumulative IPC: 0.37368 (Simulation time: 0 hr 21 min 9 sec) 
Heartbeat CPU  0 instructions:  503000003 cycles: 1147124340 heartbeat IPC: 0.22366 cumulative IPC: 0.37306 (Simulation time: 0 hr 21 min 13 sec) 
Heartbeat CPU  0 instructions:  504000000 cycles: 1150406485 heartbeat IPC: 0.30468 cumulative IPC: 0.37286 (Simulation time: 0 hr 21 min 16 sec) 
Heartbeat CPU  0 instructions:  505000000 cycles: 1152118244 heartbeat IPC: 0.58419 cumulative IPC: 0.37319 (Simulation time: 0 hr 21 min 17 sec) 
Heartbeat CPU  0 instructions:  506000000 cycles: 1153916786 heartbeat IPC: 0.55601 cumulative IPC: 0.37349 (Simulation time: 0 hr 21 min 19 sec) 
Heartbeat CPU  0 instructions:  507000002 cycles: 1156277402 heartbeat IPC: 0.42362 cumulative IPC: 0.37360 (Simulation time: 0 hr 21 min 21 sec) 
Heartbeat CPU  0 instructions:  508000000 cycles: 1158963939 heartbeat IPC: 0.37223 cumulative IPC: 0.37360 (Simulation time: 0 hr 21 min 24 sec) 
Heartbeat CPU  0 instructions:  509000001 cycles: 1161507473 heartbeat IPC: 0.39315 cumulative IPC: 0.37364 (Simulation time: 0 hr 21 min 27 sec) 
Heartbeat CPU  0 instructions:  510000003 cycles: 1163757772 heartbeat IPC: 0.44439 cumulative IPC: 0.37379 (Simulation time: 0 hr 21 min 29 sec) 
Heartbeat CPU  0 instructions:  511000000 cycles: 1166566502 heartbeat IPC: 0.35603 cumulative IPC: 0.37374 (Simulation time: 0 hr 21 min 32 sec) 
Heartbeat CPU  0 instructions:  512000000 cycles: 1168175308 heartbeat IPC: 0.62158 cumulative IPC: 0.37410 (Simulation time: 0 hr 21 min 34 sec) 
Heartbeat CPU  0 instructions:  513000001 cycles: 1172644460 heartbeat IPC: 0.22376 cumulative IPC: 0.37350 (Simulation time: 0 hr 21 min 38 sec) 
Heartbeat CPU  0 instructions:  514000000 cycles: 1175758988 heartbeat IPC: 0.32108 cumulative IPC: 0.37335 (Simulation time: 0 hr 21 min 41 sec) 
Heartbeat CPU  0 instructions:  515000001 cycles: 1177458337 heartbeat IPC: 0.58846 cumulative IPC: 0.37368 (Simulation time: 0 hr 21 min 42 sec) 
Heartbeat CPU  0 instructions:  516000000 cycles: 1179298708 heartbeat IPC: 0.54337 cumulative IPC: 0.37396 (Simulation time: 0 hr 21 min 44 sec) 
Heartbeat CPU  0 instructions:  517000001 cycles: 1181589444 heartbeat IPC: 0.43654 cumulative IPC: 0.37409 (Simulation time: 0 hr 21 min 46 sec) 
Heartbeat CPU  0 instructions:  518000001 cycles: 1184371566 heartbeat IPC: 0.35944 cumulative IPC: 0.37405 (Simulation time: 0 hr 21 min 49 sec) 
Heartbeat CPU  0 instructions:  519000002 cycles: 1186928252 heartbeat IPC: 0.39113 cumulative IPC: 0.37409 (Simulation time: 0 hr 21 min 51 sec) 
Heartbeat CPU  0 instructions:  520000000 cycles: 1189154005 heartbeat IPC: 0.44929 cumulative IPC: 0.37424 (Simulation time: 0 hr 21 min 54 sec) 
Heartbeat CPU  0 instructions:  521000000 cycles: 1191921951 heartbeat IPC: 0.36128 cumulative IPC: 0.37421 (Simulation time: 0 hr 21 min 56 sec) 
Heartbeat CPU  0 instructions:  522000002 cycles: 1193623596 heartbeat IPC: 0.58767 cumulative IPC: 0.37453 (Simulation time: 0 hr 21 min 59 sec) 
Heartbeat CPU  0 instructions:  523000002 cycles: 1198111254 heartbeat IPC: 0.22283 cumulative IPC: 0.37393 (Simulation time: 0 hr 22 min 3 sec) 
Heartbeat CPU  0 instructions:  524000000 cycles: 1201118084 heartbeat IPC: 0.33258 cumulative IPC: 0.37382 (Simulation time: 0 hr 22 min 5 sec) 
Heartbeat CPU  0 instructions:  525000003 cycles: 1202814777 heartbeat IPC: 0.58938 cumulative IPC: 0.37414 (Simulation time: 0 hr 22 min 7 sec) 
Heartbeat CPU  0 instructions:  526000002 cycles: 1204692960 heartbeat IPC: 0.53243 cumulative IPC: 0.37440 (Simulation time: 0 hr 22 min 9 sec) 
Heartbeat CPU  0 instructions:  527000001 cycles: 1206922185 heartbeat IPC: 0.44859 cumulative IPC: 0.37455 (Simulation time: 0 hr 22 min 11 sec) 
Heartbeat CPU  0 instructions:  528000000 cycles: 1209801794 heartbeat IPC: 0.34727 cumulative IPC: 0.37448 (Simulation time: 0 hr 22 min 13 sec) 
Heartbeat CPU  0 instructions:  529000001 cycles: 1212323940 heartbeat IPC: 0.39649 cumulative IPC: 0.37453 (Simulation time: 0 hr 22 min 16 sec) 
Heartbeat CPU  0 instructions:  530000001 cycles: 1214527761 heartbeat IPC: 0.45376 cumulative IPC: 0.37468 (Simulation time: 0 hr 22 min 19 sec) 
Heartbeat CPU  0 instructions:  531000001 cycles: 1217237481 heartbeat IPC: 0.36904 cumulative IPC: 0.37467 (Simulation time: 0 hr 22 min 21 sec) 
Heartbeat CPU  0 instructions:  532000000 cycles: 1219007765 heartbeat IPC: 0.56488 cumulative IPC: 0.37496 (Simulation time: 0 hr 22 min 24 sec) 
Heartbeat CPU  0 instructions:  533000003 cycles: 1223505194 heartbeat IPC: 0.22235 cumulative IPC: 0.37436 (Simulation time: 0 hr 22 min 28 sec) 
Heartbeat CPU  0 instructions:  534000001 cycles: 1226397230 heartbeat IPC: 0.34578 cumulative IPC: 0.37429 (Simulation time: 0 hr 22 min 30 sec) 
Heartbeat CPU  0 instructions:  535000003 cycles: 1228083745 heartbeat IPC: 0.59294 cumulative IPC: 0.37461 (Simulation time: 0 hr 22 min 32 sec) 
Heartbeat CPU  0 instructions:  536000000 cycles: 1230006406 heartbeat IPC: 0.52011 cumulative IPC: 0.37485 (Simulation time: 0 hr 22 min 34 sec) 
Heartbeat CPU  0 instructions:  537000001 cycles: 1232179296 heartbeat IPC: 0.46022 cumulative IPC: 0.37501 (Simulation time: 0 hr 22 min 37 sec) 
Heartbeat CPU  0 instructions:  538000002 cycles: 1235149817 heartbeat IPC: 0.33664 cumulative IPC: 0.37491 (Simulation time: 0 hr 22 min 39 sec) 
Heartbeat CPU  0 instructions:  539000000 cycles: 1237648465 heartbeat IPC: 0.40022 cumulative IPC: 0.37497 (Simulation time: 0 hr 22 min 42 sec) 
Heartbeat CPU  0 instructions:  540000000 cycles: 1239923808 heartbeat IPC: 0.43949 cumulative IPC: 0.37509 (Simulation time: 0 hr 22 min 44 sec) 
Heartbeat CPU  0 instructions:  541000002 cycles: 1242630433 heartbeat IPC: 0.36946 cumulative IPC: 0.37508 (Simulation time: 0 hr 22 min 47 sec) 
Heartbeat CPU  0 instructions:  542000001 cycles: 1244431936 heartbeat IPC: 0.55509 cumulative IPC: 0.37535 (Simulation time: 0 hr 22 min 49 sec) 
Heartbeat CPU  0 instructions:  543000003 cycles: 1248993867 heartbeat IPC: 0.21921 cumulative IPC: 0.37475 (Simulation time: 0 hr 22 min 54 sec) 
Heartbeat CPU  0 instructions:  544000000 cycles: 1251791108 heartbeat IPC: 0.35749 cumulative IPC: 0.37471 (Simulation time: 0 hr 22 min 56 sec) 
Heartbeat CPU  0 instructions:  545000000 cycles: 1253463338 heartbeat IPC: 0.59800 cumulative IPC: 0.37503 (Simulation time: 0 hr 22 min 57 sec) 
Heartbeat CPU  0 instructions:  546000002 cycles: 1255425883 heartbeat IPC: 0.50954 cumulative IPC: 0.37525 (Simulation time: 0 hr 22 min 59 sec) 
Heartbeat CPU  0 instructions:  547000001 cycles: 1257531740 heartbeat IPC: 0.47487 cumulative IPC: 0.37542 (Simulation time: 0 hr 23 min 1 sec) 
Heartbeat CPU  0 instructions:  548000000 cycles: 1260560861 heartbeat IPC: 0.33013 cumulative IPC: 0.37531 (Simulation time: 0 hr 23 min 4 sec) 
Heartbeat CPU  0 instructions:  549000003 cycles: 1263062439 heartbeat IPC: 0.39975 cumulative IPC: 0.37536 (Simulation time: 0 hr 23 min 7 sec) 
Heartbeat CPU  0 instructions:  550000001 cycles: 1264547384 heartbeat IPC: 0.67342 cumulative IPC: 0.37573 (Simulation time: 0 hr 23 min 9 sec) 
Heartbeat CPU  0 instructions:  551000000 cycles: 1270930681 heartbeat IPC: 0.15666 cumulative IPC: 0.37457 (Simulation time: 0 hr 23 min 13 sec) 
Heartbeat CPU  0 instructions:  552000000 cycles: 1275698048 heartbeat IPC: 0.20976 cumulative IPC: 0.37392 (Simulation time: 0 hr 23 min 17 sec) 
Heartbeat CPU  0 instructions:  553000000 cycles: 1280010158 heartbeat IPC: 0.23191 cumulative IPC: 0.37341 (Simulation time: 0 hr 23 min 21 sec) 
Heartbeat CPU  0 instructions:  554000003 cycles: 1284893123 heartbeat IPC: 0.20479 cumulative IPC: 0.37274 (Simulation time: 0 hr 23 min 26 sec) 
Heartbeat CPU  0 instructions:  555000002 cycles: 1288377929 heartbeat IPC: 0.28696 cumulative IPC: 0.37249 (Simulation time: 0 hr 23 min 29 sec) 
Heartbeat CPU  0 instructions:  556000000 cycles: 1291410860 heartbeat IPC: 0.32971 cumulative IPC: 0.37239 (Simulation time: 0 hr 23 min 32 sec) 
Heartbeat CPU  0 instructions:  557000000 cycles: 1295619652 heartbeat IPC: 0.23760 cumulative IPC: 0.37193 (Simulation time: 0 hr 23 min 36 sec) 
Heartbeat CPU  0 instructions:  558000001 cycles: 1299193782 heartbeat IPC: 0.27979 cumulative IPC: 0.37166 (Simulation time: 0 hr 23 min 39 sec) 
Heartbeat CPU  0 instructions:  559000000 cycles: 1302816383 heartbeat IPC: 0.27604 cumulative IPC: 0.37138 (Simulation time: 0 hr 23 min 42 sec) 
Heartbeat CPU  0 instructions:  560000000 cycles: 1305527241 heartbeat IPC: 0.36889 cumulative IPC: 0.37137 (Simulation time: 0 hr 23 min 44 sec) 
Heartbeat CPU  0 instructions:  561000001 cycles: 1308078543 heartbeat IPC: 0.39196 cumulative IPC: 0.37141 (Simulation time: 0 hr 23 min 47 sec) 
Heartbeat CPU  0 instructions:  562000000 cycles: 1310067330 heartbeat IPC: 0.50282 cumulative IPC: 0.37162 (Simulation time: 0 hr 23 min 50 sec) 
Heartbeat CPU  0 instructions:  563000002 cycles: 1312361906 heartbeat IPC: 0.43581 cumulative IPC: 0.37174 (Simulation time: 0 hr 23 min 52 sec) 
Heartbeat CPU  0 instructions:  564000000 cycles: 1313779341 heartbeat IPC: 0.70550 cumulative IPC: 0.37212 (Simulation time: 0 hr 23 min 54 sec) 
Heartbeat CPU  0 instructions:  565000000 cycles: 1315522190 heartbeat IPC: 0.57377 cumulative IPC: 0.37240 (Simulation time: 0 hr 23 min 57 sec) 
Heartbeat CPU  0 instructions:  566000001 cycles: 1318615741 heartbeat IPC: 0.32325 cumulative IPC: 0.37228 (Simulation time: 0 hr 24 min 0 sec) 
Heartbeat CPU  0 instructions:  567000000 cycles: 1321204764 heartbeat IPC: 0.38625 cumulative IPC: 0.37231 (Simulation time: 0 hr 24 min 3 sec) 
Heartbeat CPU  0 instructions:  568000000 cycles: 1323363718 heartbeat IPC: 0.46319 cumulative IPC: 0.37247 (Simulation time: 0 hr 24 min 5 sec) 
Heartbeat CPU  0 instructions:  569000000 cycles: 1325855058 heartbeat IPC: 0.40139 cumulative IPC: 0.37252 (Simulation time: 0 hr 24 min 8 sec) 
Heartbeat CPU  0 instructions:  570000000 cycles: 1327520250 heartbeat IPC: 0.60053 cumulative IPC: 0.37283 (Simulation time: 0 hr 24 min 10 sec) 
Heartbeat CPU  0 instructions:  571000000 cycles: 1331189963 heartbeat IPC: 0.27250 cumulative IPC: 0.37253 (Simulation time: 0 hr 24 min 14 sec) 
Heartbeat CPU  0 instructions:  572000000 cycles: 1335342031 heartbeat IPC: 0.24084 cumulative IPC: 0.37210 (Simulation time: 0 hr 24 min 17 sec) 
Heartbeat CPU  0 instructions:  573000002 cycles: 1337091050 heartbeat IPC: 0.57175 cumulative IPC: 0.37238 (Simulation time: 0 hr 24 min 19 sec) 
Heartbeat CPU  0 instructions:  574000002 cycles: 1338563991 heartbeat IPC: 0.67891 cumulative IPC: 0.37273 (Simulation time: 0 hr 24 min 20 sec) 
Heartbeat CPU  0 instructions:  575000000 cycles: 1341061018 heartbeat IPC: 0.40048 cumulative IPC: 0.37279 (Simulation time: 0 hr 24 min 23 sec) 
Heartbeat CPU  0 instructions:  576000000 cycles: 1343370998 heartbeat IPC: 0.43290 cumulative IPC: 0.37290 (Simulation time: 0 hr 24 min 25 sec) 
Heartbeat CPU  0 instructions:  577000000 cycles: 1346054034 heartbeat IPC: 0.37271 cumulative IPC: 0.37290 (Simulation time: 0 hr 24 min 27 sec) 
Heartbeat CPU  0 instructions:  578000002 cycles: 1348871095 heartbeat IPC: 0.35498 cumulative IPC: 0.37286 (Simulation time: 0 hr 24 min 30 sec) 
Heartbeat CPU  0 instructions:  579000002 cycles: 1352415770 heartbeat IPC: 0.28211 cumulative IPC: 0.37261 (Simulation time: 0 hr 24 min 34 sec) 
Heartbeat CPU  0 instructions:  580000000 cycles: 1354677073 heartbeat IPC: 0.44222 cumulative IPC: 0.37273 (Simulation time: 0 hr 24 min 36 sec) 
Heartbeat CPU  0 instructions:  581000000 cycles: 1357133562 heartbeat IPC: 0.40709 cumulative IPC: 0.37279 (Simulation time: 0 hr 24 min 39 sec) 
Heartbeat CPU  0 instructions:  582000002 cycles: 1362098177 heartbeat IPC: 0.20143 cumulative IPC: 0.37214 (Simulation time: 0 hr 24 min 44 sec) 
Heartbeat CPU  0 instructions:  583000000 cycles: 1364144375 heartbeat IPC: 0.48871 cumulative IPC: 0.37232 (Simulation time: 0 hr 24 min 45 sec) 
Heartbeat CPU  0 instructions:  584000000 cycles: 1365794121 heartbeat IPC: 0.60615 cumulative IPC: 0.37262 (Simulation time: 0 hr 24 min 47 sec) 
Heartbeat CPU  0 instructions:  585000000 cycles: 1367857342 heartbeat IPC: 0.48468 cumulative IPC: 0.37280 (Simulation time: 0 hr 24 min 49 sec) 
Heartbeat CPU  0 instructions:  586000000 cycles: 1369989213 heartbeat IPC: 0.46907 cumulative IPC: 0.37295 (Simulation time: 0 hr 24 min 51 sec) 
Heartbeat CPU  0 instructions:  587000002 cycles: 1373031579 heartbeat IPC: 0.32869 cumulative IPC: 0.37285 (Simulation time: 0 hr 24 min 53 sec) 
Heartbeat CPU  0 instructions:  588000000 cycles: 1375649205 heartbeat IPC: 0.38202 cumulative IPC: 0.37287 (Simulation time: 0 hr 24 min 56 sec) 
Heartbeat CPU  0 instructions:  589000001 cycles: 1377873991 heartbeat IPC: 0.44948 cumulative IPC: 0.37300 (Simulation time: 0 hr 24 min 59 sec) 
Heartbeat CPU  0 instructions:  590000000 cycles: 1380403105 heartbeat IPC: 0.39539 cumulative IPC: 0.37304 (Simulation time: 0 hr 25 min 1 sec) 
Heartbeat CPU  0 instructions:  591000001 cycles: 1382372128 heartbeat IPC: 0.50787 cumulative IPC: 0.37324 (Simulation time: 0 hr 25 min 4 sec) 
Heartbeat CPU  0 instructions:  592000000 cycles: 1386991695 heartbeat IPC: 0.21647 cumulative IPC: 0.37269 (Simulation time: 0 hr 25 min 8 sec) 
Heartbeat CPU  0 instructions:  593000003 cycles: 1389603469 heartbeat IPC: 0.38288 cumulative IPC: 0.37272 (Simulation time: 0 hr 25 min 10 sec) 
Heartbeat CPU  0 instructions:  594000003 cycles: 1391274012 heartbeat IPC: 0.59861 cumulative IPC: 0.37300 (Simulation time: 0 hr 25 min 11 sec) 
Heartbeat CPU  0 instructions:  595000003 cycles: 1393240152 heartbeat IPC: 0.50861 cumulative IPC: 0.37320 (Simulation time: 0 hr 25 min 13 sec) 
Heartbeat CPU  0 instructions:  596000000 cycles: 1395338510 heartbeat IPC: 0.47656 cumulative IPC: 0.37336 (Simulation time: 0 hr 25 min 16 sec) 
Heartbeat CPU  0 instructions:  597000002 cycles: 1398517907 heartbeat IPC: 0.31453 cumulative IPC: 0.37322 (Simulation time: 0 hr 25 min 18 sec) 
Heartbeat CPU  0 instructions:  598000001 cycles: 1400999039 heartbeat IPC: 0.40304 cumulative IPC: 0.37328 (Simulation time: 0 hr 25 min 21 sec) 
Heartbeat CPU  0 instructions:  599000003 cycles: 1403413284 heartbeat IPC: 0.41421 cumulative IPC: 0.37335 (Simulation time: 0 hr 25 min 24 sec) 
Heartbeat CPU  0 instructions:  600000000 cycles: 1405897939 heartbeat IPC: 0.40247 cumulative IPC: 0.37341 (Simulation time: 0 hr 25 min 26 sec) 
Finished CPU 0 instructions: 500000000 cycles: 1339020514 cumulative IPC: 0.37341 (Simulation time: 0 hr 25 min 26 sec) 

ChampSim completed all CPUs

[ROI Statistics]
Core_0_instructions 500000000
Core_0_cycles 1339020514
Core_0_IPC 0.37341

Core_0_branch_prediction_accuracy 95.09196
Core_0_branch_MPKI 8.72608
Core_0_average_ROB_occupancy_at_mispredict 82.08234

Core_0_L1D_total_access 103710933
Core_0_L1D_total_hit 77179864
Core_0_L1D_total_miss 26531069
Core_0_L1D_loads 77800636
Core_0_L1D_load_hit 55210042
Core_0_L1D_load_miss 22590594
Core_0_L1D_RFOs 25910297
Core_0_L1D_RFO_hit 21969822
Core_0_L1D_RFO_miss 3940475
Core_0_L1D_prefetches 0
Core_0_L1D_prefetch_hit 0
Core_0_L1D_prefetch_miss 0
Core_0_L1D_writebacks 0
Core_0_L1D_writeback_hit 0
Core_0_L1D_writeback_miss 0
Core_0_L1D_prefetch_requested 0
Core_0_L1D_prefetch_dropped 0
Core_0_L1D_prefetch_issued 0
Core_0_L1D_prefetch_filled 0
Core_0_L1D_prefetch_useful 0
Core_0_L1D_prefetch_useless 0
Core_0_L1D_prefetch_late 0
Core_0_L1D_average_miss_latency 101.80694

Core_0_L1D_rq_access 150251112
Core_0_L1D_rq_forward 0
Core_0_L1D_rq_merged 66012292
Core_0_L1D_rq_to_cache 84238783
Core_0_L1D_rq_full 0

Core_0_L1D_wq_access 35310153
Core_0_L1D_wq_forward 37
Core_0_L1D_wq_merged 32689
Core_0_L1D_wq_to_cache 35277464
Core_0_L1D_wq_full 7960461

Core_0_L1D_pq_access 0
Core_0_L1D_pq_forward 0
Core_0_L1D_pq_merged 0
Core_0_L1D_pq_to_cache 0
Core_0_L1D_pq_full 0

Core_0_L1D_acc_epochs 1323489
Core_0_L1D_acc_level_0 1323489
Core_0_L1D_acc_level_1 0
Core_0_L1D_acc_level_2 0
Core_0_L1D_acc_level_3 0
Core_0_L1D_acc_level_4 0
Core_0_L1D_acc_level_5 0
Core_0_L1D_acc_level_6 0
Core_0_L1D_acc_level_7 0
Core_0_L1D_acc_level_8 0
Core_0_L1D_acc_level_9 0

Core_0_L1I_total_access 103999884
Core_0_L1I_total_hit 103996686
Core_0_L1I_total_miss 3198
Core_0_L1I_loads 103999884
Core_0_L1I_load_hit 103996686
Core_0_L1I_load_miss 3198
Core_0_L1I_RFOs 0
Core_0_L1I_RFO_hit 0
Core_0_L1I_RFO_miss 0
Core_0_L1I_prefetches 0
Core_0_L1I_prefetch_hit 0
Core_0_L1I_prefetch_miss 0
Core_0_L1I_writebacks 0
Core_0_L1I_writeback_hit 0
Core_0_L1I_writeback_miss 0
Core_0_L1I_prefetch_requested 0
Core_0_L1I_prefetch_dropped 0
Core_0_L1I_prefetch_issued 0
Core_0_L1I_prefetch_filled 0
Core_0_L1I_prefetch_useful 0
Core_0_L1I_prefetch_useless 0
Core_0_L1I_prefetch_late 0
Core_0_L1I_average_miss_latency 267.11664

Core_0_L1I_rq_access 500000000
Core_0_L1I_rq_forward 0
Core_0_L1I_rq_merged 395996982
Core_0_L1I_rq_to_cache 104003018
Core_0_L1I_rq_full 0

Core_0_L1I_wq_access 0
Core_0_L1I_wq_forward 0
Core_0_L1I_wq_merged 0
Core_0_L1I_wq_to_cache 0
Core_0_L1I_wq_full 0

Core_0_L1I_pq_access 0
Core_0_L1I_pq_forward 0
Core_0_L1I_pq_merged 0
Core_0_L1I_pq_to_cache 0
Core_0_L1I_pq_full 0

Core_0_L1I_acc_epochs 1323489
Core_0_L1I_acc_level_0 1323489
Core_0_L1I_acc_level_1 0
Core_0_L1I_acc_level_2 0
Core_0_L1I_acc_level_3 0
Core_0_L1I_acc_level_4 0
Core_0_L1I_acc_level_5 0
Core_0_L1I_acc_level_6 0
Core_0_L1I_acc_level_7 0
Core_0_L1I_acc_level_8 0
Core_0_L1I_acc_level_9 0

Core_0_L2C_total_access 48323826
Core_0_L2C_total_hit 25164312
Core_0_L2C_total_miss 23159514
Core_0_L2C_loads 22590838
Core_0_L2C_load_hit 8602526
Core_0_L2C_load_miss 13988312
Core_0_L2C_RFOs 3940034
Core_0_L2C_RFO_hit 460950
Core_0_L2C_RFO_miss 3479084
Core_0_L2C_prefetches 10848798
Core_0_L2C_prefetch_hit 5158356
Core_0_L2C_prefetch_miss 5690442
Core_0_L2C_writebacks 10944156
Core_0_L2C_writeback_hit 10942480
Core_0_L2C_writeback_miss 1676
Core_0_L2C_prefetch_requested 51936819
Core_0_L2C_prefetch_dropped 0
Core_0_L2C_prefetch_issued 51936819
Core_0_L2C_prefetch_filled 6899903
Core_0_L2C_prefetch_useful 5253910
Core_0_L2C_prefetch_useless 1645896
Core_0_L2C_prefetch_late 133858
Core_0_L2C_average_miss_latency 169.12327

Core_0_L2C_rq_access 26534267
Core_0_L2C_rq_forward 0
Core_0_L2C_rq_merged 0
Core_0_L2C_rq_to_cache 26530872
Core_0_L2C_rq_full 0

Core_0_L2C_wq_access 10944156
Core_0_L2C_wq_forward 3498
Core_0_L2C_wq_merged 0
Core_0_L2C_wq_to_cache 10944156
Core_0_L2C_wq_full 0

Core_0_L2C_pq_access 51936819
Core_0_L2C_pq_forward 0
Core_0_L2C_pq_merged 169
Core_0_L2C_pq_to_cache 51936547
Core_0_L2C_pq_full 0

Core_0_L2C_acc_epochs 1323489
Core_0_L2C_acc_level_0 622356
Core_0_L2C_acc_level_1 131789
Core_0_L2C_acc_level_2 95692
Core_0_L2C_acc_level_3 64720
Core_0_L2C_acc_level_4 42554
Core_0_L2C_acc_level_5 67064
Core_0_L2C_acc_level_6 38795
Core_0_L2C_acc_level_7 34408
Core_0_L2C_acc_level_8 28405
Core_0_L2C_acc_level_9 197706

Core_0_LLC_total_access 64001768
Core_0_LLC_total_hit 35144389
Core_0_LLC_total_miss 28857379
Core_0_LLC_loads 13859773
Core_0_LLC_load_hit 10570795
Core_0_LLC_load_miss 3288978
Core_0_LLC_RFOs 3478989
Core_0_LLC_RFO_hit 757767
Core_0_LLC_RFO_miss 2721222
Core_0_LLC_prefetches 38560340
Core_0_LLC_prefetch_hit 17872446
Core_0_LLC_prefetch_miss 20687894
Core_0_LLC_writebacks 8102666
Core_0_LLC_writeback_hit 5943381
Core_0_LLC_writeback_miss 2159285
Core_0_LLC_prefetch_requested 0
Core_0_LLC_prefetch_dropped 0
Core_0_LLC_prefetch_issued 0
Core_0_LLC_prefetch_filled 24559115
Core_0_LLC_prefetch_useful 7911922
Core_0_LLC_prefetch_useless 16636907
Core_0_LLC_prefetch_late 221281
Core_0_LLC_average_miss_latency 366.15642

Core_0_LLC_rq_access 17338900
Core_0_LLC_rq_forward 0
Core_0_LLC_rq_merged 0
Core_0_LLC_rq_to_cache 17338762
Core_0_LLC_rq_full 0

Core_0_LLC_wq_access 8102666
Core_0_LLC_wq_forward 597
Core_0_LLC_wq_merged 0
Core_0_LLC_wq_to_cache 8102666
Core_0_LLC_wq_full 0

Core_0_LLC_pq_access 45337300
Core_0_LLC_pq_forward 0
Core_0_LLC_pq_merged 30
Core_0_LLC_pq_to_cache 45336804
Core_0_LLC_pq_full 0

Core_0_LLC_acc_epochs 1372948
Core_0_LLC_acc_level_0 709783
Core_0_LLC_acc_level_1 148183
Core_0_LLC_acc_level_2 112985
Core_0_LLC_acc_level_3 86831
Core_0_LLC_acc_level_4 62765
Core_0_LLC_acc_level_5 50965
Core_0_LLC_acc_level_6 32212
Core_0_LLC_acc_level_7 24074
Core_0_LLC_acc_level_8 18066
Core_0_LLC_acc_level_9 127084

Core_0_major_page_fault 0
Core_0_minor_page_fault 12989

[Bingo] PHT Access: 3112631
[Bingo] PHT Hit PC+Addr: 211754
[Bingo] PHT Hit PC+Offs: 2697596
[Bingo] PHT Miss: 203281
[Bingo] Prefetch PC+Addr: 0
[Bingo] Prefetch PC+Offs: 0
[Bingo] Useful PC+Addr: 0
[Bingo] Useful PC+Offs: 0
[Bingo] Useless PC+Addr: 0
[Bingo] Useless PC+Offs: 0
[Bingo] L1 Prefetch per Region: 0.00000
[Bingo] L2 Prefetch per Region: 3.84819
[Bingo] L3 Prefetch per Region: 17.40087
[Bingo] No Prefetch per Region: 10.75094
[Bingo] Number of Voters Mean: 11.00965
[Bingo] Number of Voters SD: 5.26197

Channel_0_RQ_row_buffer_hit 16349813
Channel_0_RQ_row_buffer_miss 10340417
Channel_0_WQ_row_buffer_hit 1144531
Channel_0_WQ_row_buffer_miss 4265047
Channel_0_WQ_full 403
Channel_0_dbus_congested 24949105

avg_congested_cycle 11

DRAM_bw_pochs 5491789
DRAM_bw_level_0 2804828
DRAM_bw_level_1 813507
DRAM_bw_level_2 511152
DRAM_bw_level_3 1362302
