*************************************************
   ChampSim Multicore Out-of-Order Simulator
   Last compiled: Dec 11 2024 17:59:53
*************************************************
parsing config file: /home/functionmain/桌面/Pythia/config/bingo.ini

trace_0 /home/functionmain/桌面/Pythia/traces/450.soplex-247B.champsimtrace.xz
adding L2C_PREFETCHER: Bingo
Initialize SHIP state
warmup_instructions 100000000
simulation_instructions 500000000
champsim_seed 223
measure_ipc 0
measure_ipc_epoch 1000
measure_dram_bw 1
measure_dram_bw_epoch 256
measure_cache_acc 1
measure_cache_acc_epoch 1024
l1d_perfect 0
l2c_perfect 0
llc_perfect 0
l1d_semi_perfect 0
l2c_semi_perfect 0
llc_semi_perfect 0
semi_perfect_cache_page_buffer_size 64

num_cpus 1
cpu_freq 4000
dram_io_freq 600
page_size 4096
block_size 64
max_read_per_cycle 8
max_fill_per_cycle 1
dram_channels 1
log2_dram_channels 0
dram_ranks 1
dram_banks 8
dram_rows 65536
dram_columns 128
dram_row_size 8
dram_size 4096
dram_pages 1048576

fetch_width 6
decode_width 6
exec_width 4
lq_width 2
sq_width 2
retire_width 4
scheduler_size 128
branch_mispredict_penalty 20
rob_size 256
lq_size 72
sq_size 56
num_instr_destinations_sparc 4
num_instr_destinations 2
num_instr_sources 4

itlb_set 16
itlb_way 8
itlb_rq_size 16
itlb_wq_size 16
itlb_pq_size 0
itlb_mshr_size 8
itlb_latency 1

dtlb_set 16
dtlb_way 4
dtlb_rq_size 16
dtlb_wq_size 16
dtlb_pq_size 0
dtlb_mshr_size 8
dtlb_latency 1

stlb_set 128
stlb_way 12
stlb_rq_size 32
stlb_wq_size 32
stlb_pq_size 0
stlb_mshr_size 16
stlb_latency 8

l1i_size 32
l1i_set 64
l1i_way 8
l1i_rq_size 64
l1i_wq_size 64
l1i_pq_size 8
l1i_mshr_size 8
l1i_latency 1

l1d_size 32
l1d_set 64
l1d_way 8
l1d_rq_size 64
l1d_wq_size 64
l1d_pq_size 8
l1d_mshr_size 16
l1d_latency 4

l2c_size 256
l2c_set 512
l2c_way 8
l2c_rq_size 32
l2c_wq_size 32
l2c_pq_size 32
l2c_mshr_size 32
l2c_latency 10

llc_size 2048
llc_set 2048
llc_way 16
llc_rq_size 32
llc_wq_size 32
llc_pq_size 32
llc_mshr_size 64
llc_latency 20

dram_channel_width 8
dram_wq_size 64
dram_rq_size 64
tRP 15
tRCD 15
tCAS 12.5
dram_dbus_turn_around_time 30
dram_write_high_wm 56
dram_write_low_wm 48
min_dram_writes_per_switch 16
dram_mtps 600
dram_dbus_return_time 53

bingo_region_size 2048
bingo_pattern_len 32
bingo_pc_width 16
bingo_min_addr_width 5
bingo_max_addr_width 16
bingo_ft_size 64
bingo_at_size 128
bingo_pht_size 4096
bingo_pht_ways 16
bingo_pf_streamer_size 128
bingo_debug_level 0
bingo_l1d_thresh 1.01
bingo_l2c_thresh 0.8
bingo_llc_thresh 0.05
bingo_pc_address_fill_level L2


Heartbeat CPU  0 instructions:    1000002 cycles:     757576 heartbeat IPC: 1.32000 cumulative IPC: 1.32000 (Simulation time: 0 hr 0 min 2 sec) 
Heartbeat CPU  0 instructions:    2000001 cycles:    1400497 heartbeat IPC: 1.55540 cumulative IPC: 1.42807 (Simulation time: 0 hr 0 min 4 sec) 
Heartbeat CPU  0 instructions:    3000001 cycles:    2125608 heartbeat IPC: 1.37910 cumulative IPC: 1.41136 (Simulation time: 0 hr 0 min 5 sec) 
Heartbeat CPU  0 instructions:    4000000 cycles:    2666661 heartbeat IPC: 1.84825 cumulative IPC: 1.50000 (Simulation time: 0 hr 0 min 7 sec) 
Heartbeat CPU  0 instructions:    5000000 cycles:    3572950 heartbeat IPC: 1.10340 cumulative IPC: 1.39940 (Simulation time: 0 hr 0 min 8 sec) 
Heartbeat CPU  0 instructions:    6000001 cycles:    4464275 heartbeat IPC: 1.12193 cumulative IPC: 1.34400 (Simulation time: 0 hr 0 min 10 sec) 
Heartbeat CPU  0 instructions:    7000000 cycles:    5262918 heartbeat IPC: 1.25212 cumulative IPC: 1.33006 (Simulation time: 0 hr 0 min 12 sec) 
Heartbeat CPU  0 instructions:    8000000 cycles:    5954641 heartbeat IPC: 1.44567 cumulative IPC: 1.34349 (Simulation time: 0 hr 0 min 14 sec) 
Heartbeat CPU  0 instructions:    9000001 cycles:    6571393 heartbeat IPC: 1.62140 cumulative IPC: 1.36957 (Simulation time: 0 hr 0 min 15 sec) 
Heartbeat CPU  0 instructions:   10000000 cycles:    7115118 heartbeat IPC: 1.83916 cumulative IPC: 1.40546 (Simulation time: 0 hr 0 min 17 sec) 
Heartbeat CPU  0 instructions:   11000001 cycles:    7707225 heartbeat IPC: 1.68889 cumulative IPC: 1.42723 (Simulation time: 0 hr 0 min 18 sec) 
Heartbeat CPU  0 instructions:   12000000 cycles:    8384205 heartbeat IPC: 1.47715 cumulative IPC: 1.43126 (Simulation time: 0 hr 0 min 20 sec) 
Heartbeat CPU  0 instructions:   13000000 cycles:    9264733 heartbeat IPC: 1.13568 cumulative IPC: 1.40317 (Simulation time: 0 hr 0 min 21 sec) 
Heartbeat CPU  0 instructions:   14000002 cycles:   10012534 heartbeat IPC: 1.33726 cumulative IPC: 1.39825 (Simulation time: 0 hr 0 min 22 sec) 
Heartbeat CPU  0 instructions:   15000002 cycles:   10614380 heartbeat IPC: 1.66155 cumulative IPC: 1.41318 (Simulation time: 0 hr 0 min 23 sec) 
Heartbeat CPU  0 instructions:   16000000 cycles:   11140757 heartbeat IPC: 1.89978 cumulative IPC: 1.43617 (Simulation time: 0 hr 0 min 25 sec) 
Heartbeat CPU  0 instructions:   17000000 cycles:   11953169 heartbeat IPC: 1.23090 cumulative IPC: 1.42222 (Simulation time: 0 hr 0 min 27 sec) 
Heartbeat CPU  0 instructions:   18000001 cycles:   12558139 heartbeat IPC: 1.65298 cumulative IPC: 1.43333 (Simulation time: 0 hr 0 min 28 sec) 
Heartbeat CPU  0 instructions:   19000001 cycles:   13095620 heartbeat IPC: 1.86053 cumulative IPC: 1.45087 (Simulation time: 0 hr 0 min 30 sec) 
Heartbeat CPU  0 instructions:   20000000 cycles:   13691553 heartbeat IPC: 1.67804 cumulative IPC: 1.46075 (Simulation time: 0 hr 0 min 31 sec) 
Heartbeat CPU  0 instructions:   21000001 cycles:   14349683 heartbeat IPC: 1.51946 cumulative IPC: 1.46345 (Simulation time: 0 hr 0 min 33 sec) 
Heartbeat CPU  0 instructions:   22000003 cycles:   15228483 heartbeat IPC: 1.13792 cumulative IPC: 1.44466 (Simulation time: 0 hr 0 min 34 sec) 
Heartbeat CPU  0 instructions:   23000001 cycles:   15994815 heartbeat IPC: 1.30491 cumulative IPC: 1.43797 (Simulation time: 0 hr 0 min 35 sec) 
Heartbeat CPU  0 instructions:   24000000 cycles:   16593412 heartbeat IPC: 1.67057 cumulative IPC: 1.44636 (Simulation time: 0 hr 0 min 36 sec) 
Heartbeat CPU  0 instructions:   25000000 cycles:   17133786 heartbeat IPC: 1.85057 cumulative IPC: 1.45911 (Simulation time: 0 hr 0 min 38 sec) 
Heartbeat CPU  0 instructions:   26000001 cycles:   17932440 heartbeat IPC: 1.25211 cumulative IPC: 1.44989 (Simulation time: 0 hr 0 min 39 sec) 
Heartbeat CPU  0 instructions:   27000003 cycles:   18507054 heartbeat IPC: 1.74030 cumulative IPC: 1.45890 (Simulation time: 0 hr 0 min 41 sec) 
Heartbeat CPU  0 instructions:   28000000 cycles:   19062741 heartbeat IPC: 1.79957 cumulative IPC: 1.46883 (Simulation time: 0 hr 0 min 42 sec) 
Heartbeat CPU  0 instructions:   29000002 cycles:   19618751 heartbeat IPC: 1.79853 cumulative IPC: 1.47818 (Simulation time: 0 hr 0 min 44 sec) 
Heartbeat CPU  0 instructions:   30000001 cycles:   20203847 heartbeat IPC: 1.70912 cumulative IPC: 1.48487 (Simulation time: 0 hr 0 min 46 sec) 
Heartbeat CPU  0 instructions:   31000002 cycles:   21073672 heartbeat IPC: 1.14966 cumulative IPC: 1.47103 (Simulation time: 0 hr 0 min 47 sec) 
Heartbeat CPU  0 instructions:   32000000 cycles:   21893954 heartbeat IPC: 1.21909 cumulative IPC: 1.46159 (Simulation time: 0 hr 0 min 48 sec) 
Heartbeat CPU  0 instructions:   33000000 cycles:   22492671 heartbeat IPC: 1.67024 cumulative IPC: 1.46714 (Simulation time: 0 hr 0 min 49 sec) 
Heartbeat CPU  0 instructions:   34000000 cycles:   23107302 heartbeat IPC: 1.62699 cumulative IPC: 1.47140 (Simulation time: 0 hr 0 min 50 sec) 
Heartbeat CPU  0 instructions:   35000000 cycles:   23831047 heartbeat IPC: 1.38170 cumulative IPC: 1.46867 (Simulation time: 0 hr 0 min 52 sec) 
Heartbeat CPU  0 instructions:   36000000 cycles:   24436244 heartbeat IPC: 1.65235 cumulative IPC: 1.47322 (Simulation time: 0 hr 0 min 54 sec) 
Heartbeat CPU  0 instructions:   37000001 cycles:   24974352 heartbeat IPC: 1.85836 cumulative IPC: 1.48152 (Simulation time: 0 hr 0 min 55 sec) 
Heartbeat CPU  0 instructions:   38000002 cycles:   25540420 heartbeat IPC: 1.76657 cumulative IPC: 1.48784 (Simulation time: 0 hr 0 min 57 sec) 
Heartbeat CPU  0 instructions:   39000001 cycles:   26120034 heartbeat IPC: 1.72528 cumulative IPC: 1.49311 (Simulation time: 0 hr 0 min 58 sec) 
Heartbeat CPU  0 instructions:   40000000 cycles:   26896058 heartbeat IPC: 1.28862 cumulative IPC: 1.48721 (Simulation time: 0 hr 1 min 0 sec) 
Heartbeat CPU  0 instructions:   41000001 cycles:   27761463 heartbeat IPC: 1.15553 cumulative IPC: 1.47687 (Simulation time: 0 hr 1 min 1 sec) 
Heartbeat CPU  0 instructions:   42000001 cycles:   28412439 heartbeat IPC: 1.53615 cumulative IPC: 1.47823 (Simulation time: 0 hr 1 min 2 sec) 
Heartbeat CPU  0 instructions:   43000000 cycles:   29049578 heartbeat IPC: 1.56951 cumulative IPC: 1.48023 (Simulation time: 0 hr 1 min 3 sec) 
Heartbeat CPU  0 instructions:   44000000 cycles:   29674645 heartbeat IPC: 1.59983 cumulative IPC: 1.48275 (Simulation time: 0 hr 1 min 5 sec) 
Heartbeat CPU  0 instructions:   45000000 cycles:   30405947 heartbeat IPC: 1.36742 cumulative IPC: 1.47997 (Simulation time: 0 hr 1 min 7 sec) 
Heartbeat CPU  0 instructions:   46000001 cycles:   30943490 heartbeat IPC: 1.86032 cumulative IPC: 1.48658 (Simulation time: 0 hr 1 min 8 sec) 
Heartbeat CPU  0 instructions:   47000000 cycles:   31501915 heartbeat IPC: 1.79075 cumulative IPC: 1.49197 (Simulation time: 0 hr 1 min 10 sec) 
Heartbeat CPU  0 instructions:   48000000 cycles:   32087421 heartbeat IPC: 1.70792 cumulative IPC: 1.49591 (Simulation time: 0 hr 1 min 11 sec) 
Heartbeat CPU  0 instructions:   49000001 cycles:   32827572 heartbeat IPC: 1.35108 cumulative IPC: 1.49265 (Simulation time: 0 hr 1 min 13 sec) 
Heartbeat CPU  0 instructions:   50000001 cycles:   33695126 heartbeat IPC: 1.15267 cumulative IPC: 1.48389 (Simulation time: 0 hr 1 min 14 sec) 
Heartbeat CPU  0 instructions:   51000003 cycles:   34388746 heartbeat IPC: 1.44171 cumulative IPC: 1.48304 (Simulation time: 0 hr 1 min 15 sec) 
Heartbeat CPU  0 instructions:   52000000 cycles:   34994123 heartbeat IPC: 1.65186 cumulative IPC: 1.48596 (Simulation time: 0 hr 1 min 16 sec) 
Heartbeat CPU  0 instructions:   53000000 cycles:   35571870 heartbeat IPC: 1.73086 cumulative IPC: 1.48994 (Simulation time: 0 hr 1 min 18 sec) 
Heartbeat CPU  0 instructions:   54000002 cycles:   36338425 heartbeat IPC: 1.30454 cumulative IPC: 1.48603 (Simulation time: 0 hr 1 min 19 sec) 
Heartbeat CPU  0 instructions:   55000001 cycles:   36911308 heartbeat IPC: 1.74556 cumulative IPC: 1.49006 (Simulation time: 0 hr 1 min 21 sec) 
Heartbeat CPU  0 instructions:   56000000 cycles:   37463341 heartbeat IPC: 1.81148 cumulative IPC: 1.49479 (Simulation time: 0 hr 1 min 23 sec) 
Heartbeat CPU  0 instructions:   57000002 cycles:   38050623 heartbeat IPC: 1.70276 cumulative IPC: 1.49800 (Simulation time: 0 hr 1 min 24 sec) 
Heartbeat CPU  0 instructions:   58000001 cycles:   38783811 heartbeat IPC: 1.36391 cumulative IPC: 1.49547 (Simulation time: 0 hr 1 min 26 sec) 
Heartbeat CPU  0 instructions:   59000001 cycles:   39653571 heartbeat IPC: 1.14974 cumulative IPC: 1.48789 (Simulation time: 0 hr 1 min 27 sec) 
Heartbeat CPU  0 instructions:   60000000 cycles:   40372469 heartbeat IPC: 1.39102 cumulative IPC: 1.48616 (Simulation time: 0 hr 1 min 28 sec) 
Heartbeat CPU  0 instructions:   61000003 cycles:   40985745 heartbeat IPC: 1.63059 cumulative IPC: 1.48832 (Simulation time: 0 hr 1 min 29 sec) 
Heartbeat CPU  0 instructions:   62000001 cycles:   41553348 heartbeat IPC: 1.76179 cumulative IPC: 1.49206 (Simulation time: 0 hr 1 min 30 sec) 
Heartbeat CPU  0 instructions:   63000000 cycles:   42346538 heartbeat IPC: 1.26073 cumulative IPC: 1.48772 (Simulation time: 0 hr 1 min 32 sec) 
Heartbeat CPU  0 instructions:   64000000 cycles:   42935658 heartbeat IPC: 1.69745 cumulative IPC: 1.49060 (Simulation time: 0 hr 1 min 34 sec) 
Heartbeat CPU  0 instructions:   65000003 cycles:   43484362 heartbeat IPC: 1.82248 cumulative IPC: 1.49479 (Simulation time: 0 hr 1 min 35 sec) 
Heartbeat CPU  0 instructions:   66000003 cycles:   44071519 heartbeat IPC: 1.70312 cumulative IPC: 1.49757 (Simulation time: 0 hr 1 min 37 sec) 
Heartbeat CPU  0 instructions:   67000000 cycles:   44760241 heartbeat IPC: 1.45196 cumulative IPC: 1.49686 (Simulation time: 0 hr 1 min 38 sec) 
Heartbeat CPU  0 instructions:   68000000 cycles:   45635591 heartbeat IPC: 1.14240 cumulative IPC: 1.49007 (Simulation time: 0 hr 1 min 39 sec) 
Heartbeat CPU  0 instructions:   69000001 cycles:   46386777 heartbeat IPC: 1.33123 cumulative IPC: 1.48749 (Simulation time: 0 hr 1 min 41 sec) 
Heartbeat CPU  0 instructions:   70000000 cycles:   47001329 heartbeat IPC: 1.62720 cumulative IPC: 1.48932 (Simulation time: 0 hr 1 min 42 sec) 
Heartbeat CPU  0 instructions:   71000002 cycles:   47532607 heartbeat IPC: 1.88226 cumulative IPC: 1.49371 (Simulation time: 0 hr 1 min 43 sec) 
Heartbeat CPU  0 instructions:   72000000 cycles:   48340394 heartbeat IPC: 1.23795 cumulative IPC: 1.48944 (Simulation time: 0 hr 1 min 45 sec) 
Heartbeat CPU  0 instructions:   73000001 cycles:   48936703 heartbeat IPC: 1.67698 cumulative IPC: 1.49172 (Simulation time: 0 hr 1 min 47 sec) 
Heartbeat CPU  0 instructions:   74000002 cycles:   49478888 heartbeat IPC: 1.84439 cumulative IPC: 1.49559 (Simulation time: 0 hr 1 min 48 sec) 
Heartbeat CPU  0 instructions:   75000003 cycles:   50075182 heartbeat IPC: 1.67703 cumulative IPC: 1.49775 (Simulation time: 0 hr 1 min 50 sec) 
Heartbeat CPU  0 instructions:   76000000 cycles:   50728203 heartbeat IPC: 1.53134 cumulative IPC: 1.49818 (Simulation time: 0 hr 1 min 51 sec) 
Heartbeat CPU  0 instructions:   77000001 cycles:   51601330 heartbeat IPC: 1.14531 cumulative IPC: 1.49221 (Simulation time: 0 hr 1 min 52 sec) 
Heartbeat CPU  0 instructions:   78000001 cycles:   52374567 heartbeat IPC: 1.29326 cumulative IPC: 1.48927 (Simulation time: 0 hr 1 min 53 sec) 
Heartbeat CPU  0 instructions:   79000003 cycles:   52987830 heartbeat IPC: 1.63063 cumulative IPC: 1.49091 (Simulation time: 0 hr 1 min 55 sec) 
Heartbeat CPU  0 instructions:   80000000 cycles:   53551734 heartbeat IPC: 1.77335 cumulative IPC: 1.49388 (Simulation time: 0 hr 1 min 56 sec) 
Heartbeat CPU  0 instructions:   81000001 cycles:   54338973 heartbeat IPC: 1.27026 cumulative IPC: 1.49064 (Simulation time: 0 hr 1 min 58 sec) 
Heartbeat CPU  0 instructions:   82000002 cycles:   54950641 heartbeat IPC: 1.63488 cumulative IPC: 1.49225 (Simulation time: 0 hr 2 min 0 sec) 
Heartbeat CPU  0 instructions:   83000003 cycles:   55510638 heartbeat IPC: 1.78573 cumulative IPC: 1.49521 (Simulation time: 0 hr 2 min 1 sec) 
Heartbeat CPU  0 instructions:   84000000 cycles:   56064977 heartbeat IPC: 1.80394 cumulative IPC: 1.49826 (Simulation time: 0 hr 2 min 2 sec) 
Heartbeat CPU  0 instructions:   85000001 cycles:   56649632 heartbeat IPC: 1.71041 cumulative IPC: 1.50045 (Simulation time: 0 hr 2 min 4 sec) 
Heartbeat CPU  0 instructions:   86000000 cycles:   57522914 heartbeat IPC: 1.14510 cumulative IPC: 1.49506 (Simulation time: 0 hr 2 min 5 sec) 
Heartbeat CPU  0 instructions:   87000000 cycles:   58349219 heartbeat IPC: 1.21021 cumulative IPC: 1.49102 (Simulation time: 0 hr 2 min 6 sec) 
Heartbeat CPU  0 instructions:   88000000 cycles:   58967727 heartbeat IPC: 1.61679 cumulative IPC: 1.49234 (Simulation time: 0 hr 2 min 7 sec) 
Heartbeat CPU  0 instructions:   89000003 cycles:   59603731 heartbeat IPC: 1.57232 cumulative IPC: 1.49320 (Simulation time: 0 hr 2 min 9 sec) 
Heartbeat CPU  0 instructions:   90000003 cycles:   60297666 heartbeat IPC: 1.44106 cumulative IPC: 1.49260 (Simulation time: 0 hr 2 min 11 sec) 
Heartbeat CPU  0 instructions:   91000001 cycles:   60972455 heartbeat IPC: 1.48194 cumulative IPC: 1.49248 (Simulation time: 0 hr 2 min 12 sec) 
Heartbeat CPU  0 instructions:   92000000 cycles:   61544837 heartbeat IPC: 1.74708 cumulative IPC: 1.49485 (Simulation time: 0 hr 2 min 14 sec) 
Heartbeat CPU  0 instructions:   93000001 cycles:   62090417 heartbeat IPC: 1.83291 cumulative IPC: 1.49782 (Simulation time: 0 hr 2 min 15 sec) 
Heartbeat CPU  0 instructions:   94000003 cycles:   62676882 heartbeat IPC: 1.70513 cumulative IPC: 1.49976 (Simulation time: 0 hr 2 min 17 sec) 
Heartbeat CPU  0 instructions:   95000003 cycles:   63514349 heartbeat IPC: 1.19408 cumulative IPC: 1.49573 (Simulation time: 0 hr 2 min 18 sec) 
Heartbeat CPU  0 instructions:   96000000 cycles:   64361475 heartbeat IPC: 1.18046 cumulative IPC: 1.49158 (Simulation time: 0 hr 2 min 19 sec) 
Heartbeat CPU  0 instructions:   97000002 cycles:   64996667 heartbeat IPC: 1.57433 cumulative IPC: 1.49238 (Simulation time: 0 hr 2 min 20 sec) 
Heartbeat CPU  0 instructions:   98000003 cycles:   65640284 heartbeat IPC: 1.55372 cumulative IPC: 1.49299 (Simulation time: 0 hr 2 min 22 sec) 
Heartbeat CPU  0 instructions:   99000002 cycles:   66292520 heartbeat IPC: 1.53319 cumulative IPC: 1.49338 (Simulation time: 0 hr 2 min 23 sec) 
Heartbeat CPU  0 instructions:  100000000 cycles:   66877438 heartbeat IPC: 1.70964 cumulative IPC: 1.49527 (Simulation time: 0 hr 2 min 25 sec) 

Warmup complete CPU  0 instructions:  100000002 cycles:   66877440 (Simulation time: 0 hr 2 min 25 sec) 

Heartbeat CPU  0 instructions:  101000000 cycles:   82211318 heartbeat IPC: 0.06522 cumulative IPC: 0.06521 (Simulation time: 0 hr 2 min 33 sec) 
Heartbeat CPU  0 instructions:  102000001 cycles:   90030860 heartbeat IPC: 0.12788 cumulative IPC: 0.08638 (Simulation time: 0 hr 2 min 38 sec) 
Heartbeat CPU  0 instructions:  103000001 cycles:   98669456 heartbeat IPC: 0.11576 cumulative IPC: 0.09436 (Simulation time: 0 hr 2 min 44 sec) 
Heartbeat CPU  0 instructions:  104000000 cycles:  107128431 heartbeat IPC: 0.11822 cumulative IPC: 0.09938 (Simulation time: 0 hr 2 min 50 sec) 
Heartbeat CPU  0 instructions:  105000003 cycles:  112926677 heartbeat IPC: 0.17247 cumulative IPC: 0.10858 (Simulation time: 0 hr 2 min 54 sec) 
Heartbeat CPU  0 instructions:  106000001 cycles:  117798583 heartbeat IPC: 0.20526 cumulative IPC: 0.11783 (Simulation time: 0 hr 2 min 58 sec) 
Heartbeat CPU  0 instructions:  107000003 cycles:  123327045 heartbeat IPC: 0.18088 cumulative IPC: 0.12400 (Simulation time: 0 hr 3 min 2 sec) 
Heartbeat CPU  0 instructions:  108000000 cycles:  126973200 heartbeat IPC: 0.27426 cumulative IPC: 0.13312 (Simulation time: 0 hr 3 min 4 sec) 
Heartbeat CPU  0 instructions:  109000000 cycles:  130563550 heartbeat IPC: 0.27852 cumulative IPC: 0.14132 (Simulation time: 0 hr 3 min 8 sec) 
Heartbeat CPU  0 instructions:  110000001 cycles:  133101882 heartbeat IPC: 0.39396 cumulative IPC: 0.15100 (Simulation time: 0 hr 3 min 10 sec) 
Heartbeat CPU  0 instructions:  111000003 cycles:  135894116 heartbeat IPC: 0.35814 cumulative IPC: 0.15938 (Simulation time: 0 hr 3 min 13 sec) 
Heartbeat CPU  0 instructions:  112000000 cycles:  138051516 heartbeat IPC: 0.46352 cumulative IPC: 0.16860 (Simulation time: 0 hr 3 min 15 sec) 
Heartbeat CPU  0 instructions:  113000002 cycles:  140524616 heartbeat IPC: 0.40435 cumulative IPC: 0.17652 (Simulation time: 0 hr 3 min 18 sec) 
Heartbeat CPU  0 instructions:  114000000 cycles:  142603956 heartbeat IPC: 0.48092 cumulative IPC: 0.18488 (Simulation time: 0 hr 3 min 20 sec) 
Heartbeat CPU  0 instructions:  115000000 cycles:  145243647 heartbeat IPC: 0.37883 cumulative IPC: 0.19141 (Simulation time: 0 hr 3 min 23 sec) 
Heartbeat CPU  0 instructions:  116000000 cycles:  148696541 heartbeat IPC: 0.28961 cumulative IPC: 0.19555 (Simulation time: 0 hr 3 min 26 sec) 
Heartbeat CPU  0 instructions:  117000000 cycles:  152833111 heartbeat IPC: 0.24175 cumulative IPC: 0.19778 (Simulation time: 0 hr 3 min 30 sec) 
Heartbeat CPU  0 instructions:  118000000 cycles:  155085420 heartbeat IPC: 0.44399 cumulative IPC: 0.20406 (Simulation time: 0 hr 3 min 33 sec) 
Heartbeat CPU  0 instructions:  119000000 cycles:  158999753 heartbeat IPC: 0.25547 cumulative IPC: 0.20625 (Simulation time: 0 hr 3 min 36 sec) 
Heartbeat CPU  0 instructions:  120000000 cycles:  161132109 heartbeat IPC: 0.46896 cumulative IPC: 0.21219 (Simulation time: 0 hr 3 min 38 sec) 
Heartbeat CPU  0 instructions:  121000001 cycles:  169992871 heartbeat IPC: 0.11286 cumulative IPC: 0.20366 (Simulation time: 0 hr 3 min 44 sec) 
Heartbeat CPU  0 instructions:  122000001 cycles:  178044321 heartbeat IPC: 0.12420 cumulative IPC: 0.19790 (Simulation time: 0 hr 3 min 49 sec) 
Heartbeat CPU  0 instructions:  123000000 cycles:  179797727 heartbeat IPC: 0.57032 cumulative IPC: 0.20368 (Simulation time: 0 hr 3 min 51 sec) 
Heartbeat CPU  0 instructions:  124000000 cycles:  181244907 heartbeat IPC: 0.69100 cumulative IPC: 0.20985 (Simulation time: 0 hr 3 min 52 sec) 
Heartbeat CPU  0 instructions:  125000000 cycles:  186859467 heartbeat IPC: 0.17811 cumulative IPC: 0.20836 (Simulation time: 0 hr 3 min 55 sec) 
Heartbeat CPU  0 instructions:  126000002 cycles:  191573110 heartbeat IPC: 0.21215 cumulative IPC: 0.20851 (Simulation time: 0 hr 3 min 59 sec) 
Heartbeat CPU  0 instructions:  127000002 cycles:  195635517 heartbeat IPC: 0.24616 cumulative IPC: 0.20970 (Simulation time: 0 hr 4 min 3 sec) 
Heartbeat CPU  0 instructions:  128000000 cycles:  198579362 heartbeat IPC: 0.33969 cumulative IPC: 0.21260 (Simulation time: 0 hr 4 min 5 sec) 
Heartbeat CPU  0 instructions:  129000003 cycles:  202354946 heartbeat IPC: 0.26486 cumulative IPC: 0.21406 (Simulation time: 0 hr 4 min 9 sec) 
Heartbeat CPU  0 instructions:  130000000 cycles:  214288638 heartbeat IPC: 0.08380 cumulative IPC: 0.20351 (Simulation time: 0 hr 4 min 16 sec) 
Heartbeat CPU  0 instructions:  131000000 cycles:  216947619 heartbeat IPC: 0.37608 cumulative IPC: 0.20657 (Simulation time: 0 hr 4 min 18 sec) 
Heartbeat CPU  0 instructions:  132000000 cycles:  218602048 heartbeat IPC: 0.60444 cumulative IPC: 0.21091 (Simulation time: 0 hr 4 min 19 sec) 
Heartbeat CPU  0 instructions:  133000000 cycles:  221292481 heartbeat IPC: 0.37169 cumulative IPC: 0.21371 (Simulation time: 0 hr 4 min 21 sec) 
Heartbeat CPU  0 instructions:  134000000 cycles:  227253853 heartbeat IPC: 0.16775 cumulative IPC: 0.21200 (Simulation time: 0 hr 4 min 25 sec) 
Heartbeat CPU  0 instructions:  135000002 cycles:  231247388 heartbeat IPC: 0.25041 cumulative IPC: 0.21293 (Simulation time: 0 hr 4 min 29 sec) 
Heartbeat CPU  0 instructions:  136000000 cycles:  234967135 heartbeat IPC: 0.26883 cumulative IPC: 0.21417 (Simulation time: 0 hr 4 min 32 sec) 
Heartbeat CPU  0 instructions:  137000000 cycles:  237689319 heartbeat IPC: 0.36735 cumulative IPC: 0.21661 (Simulation time: 0 hr 4 min 35 sec) 
Heartbeat CPU  0 instructions:  138000001 cycles:  243105789 heartbeat IPC: 0.18462 cumulative IPC: 0.21563 (Simulation time: 0 hr 4 min 39 sec) 
Heartbeat CPU  0 instructions:  139000000 cycles:  254088419 heartbeat IPC: 0.09105 cumulative IPC: 0.20832 (Simulation time: 0 hr 4 min 46 sec) 
Heartbeat CPU  0 instructions:  140000000 cycles:  255970065 heartbeat IPC: 0.53145 cumulative IPC: 0.21154 (Simulation time: 0 hr 4 min 47 sec) 
Heartbeat CPU  0 instructions:  141000000 cycles:  257537570 heartbeat IPC: 0.63796 cumulative IPC: 0.21504 (Simulation time: 0 hr 4 min 49 sec) 
Heartbeat CPU  0 instructions:  142000000 cycles:  261325641 heartbeat IPC: 0.26399 cumulative IPC: 0.21600 (Simulation time: 0 hr 4 min 51 sec) 
Heartbeat CPU  0 instructions:  143000000 cycles:  266224436 heartbeat IPC: 0.20413 cumulative IPC: 0.21570 (Simulation time: 0 hr 4 min 55 sec) 
Heartbeat CPU  0 instructions:  144000000 cycles:  270316297 heartbeat IPC: 0.24439 cumulative IPC: 0.21628 (Simulation time: 0 hr 4 min 58 sec) 
Heartbeat CPU  0 instructions:  145000002 cycles:  274135379 heartbeat IPC: 0.26184 cumulative IPC: 0.21712 (Simulation time: 0 hr 5 min 1 sec) 
Heartbeat CPU  0 instructions:  146000003 cycles:  276443006 heartbeat IPC: 0.43335 cumulative IPC: 0.21950 (Simulation time: 0 hr 5 min 4 sec) 
Heartbeat CPU  0 instructions:  147000002 cycles:  284543507 heartbeat IPC: 0.12345 cumulative IPC: 0.21593 (Simulation time: 0 hr 5 min 9 sec) 
Heartbeat CPU  0 instructions:  148000000 cycles:  293093376 heartbeat IPC: 0.11696 cumulative IPC: 0.21219 (Simulation time: 0 hr 5 min 14 sec) 
Heartbeat CPU  0 instructions:  149000000 cycles:  294865051 heartbeat IPC: 0.56444 cumulative IPC: 0.21492 (Simulation time: 0 hr 5 min 16 sec) 
Heartbeat CPU  0 instructions:  150000002 cycles:  296349494 heartbeat IPC: 0.67365 cumulative IPC: 0.21789 (Simulation time: 0 hr 5 min 17 sec) 
Heartbeat CPU  0 instructions:  151000000 cycles:  301285493 heartbeat IPC: 0.20259 cumulative IPC: 0.21757 (Simulation time: 0 hr 5 min 20 sec) 
Heartbeat CPU  0 instructions:  152000000 cycles:  305913081 heartbeat IPC: 0.21610 cumulative IPC: 0.21754 (Simulation time: 0 hr 5 min 24 sec) 
Heartbeat CPU  0 instructions:  153000000 cycles:  309122080 heartbeat IPC: 0.31162 cumulative IPC: 0.21879 (Simulation time: 0 hr 5 min 27 sec) 
Heartbeat CPU  0 instructions:  154000002 cycles:  313357453 heartbeat IPC: 0.23611 cumulative IPC: 0.21908 (Simulation time: 0 hr 5 min 30 sec) 
Heartbeat CPU  0 instructions:  155000002 cycles:  315213748 heartbeat IPC: 0.53871 cumulative IPC: 0.22147 (Simulation time: 0 hr 5 min 32 sec) 
Heartbeat CPU  0 instructions:  156000000 cycles:  324775032 heartbeat IPC: 0.10459 cumulative IPC: 0.21714 (Simulation time: 0 hr 5 min 39 sec) 
Heartbeat CPU  0 instructions:  157000000 cycles:  331966482 heartbeat IPC: 0.13905 cumulative IPC: 0.21502 (Simulation time: 0 hr 5 min 43 sec) 
Heartbeat CPU  0 instructions:  158000003 cycles:  333715108 heartbeat IPC: 0.57188 cumulative IPC: 0.21736 (Simulation time: 0 hr 5 min 45 sec) 
Heartbeat CPU  0 instructions:  159000000 cycles:  335283113 heartbeat IPC: 0.63775 cumulative IPC: 0.21982 (Simulation time: 0 hr 5 min 46 sec) 
Heartbeat CPU  0 instructions:  160000000 cycles:  341771990 heartbeat IPC: 0.15411 cumulative IPC: 0.21827 (Simulation time: 0 hr 5 min 50 sec) 
Heartbeat CPU  0 instructions:  161000003 cycles:  345853935 heartbeat IPC: 0.24498 cumulative IPC: 0.21866 (Simulation time: 0 hr 5 min 53 sec) 
Heartbeat CPU  0 instructions:  162000001 cycles:  349501398 heartbeat IPC: 0.27416 cumulative IPC: 0.21937 (Simulation time: 0 hr 5 min 57 sec) 
Heartbeat CPU  0 instructions:  163000000 cycles:  352611624 heartbeat IPC: 0.32152 cumulative IPC: 0.22048 (Simulation time: 0 hr 5 min 59 sec) 
Heartbeat CPU  0 instructions:  164000000 cycles:  356256012 heartbeat IPC: 0.27439 cumulative IPC: 0.22116 (Simulation time: 0 hr 6 min 3 sec) 
Heartbeat CPU  0 instructions:  165000002 cycles:  368028853 heartbeat IPC: 0.08494 cumulative IPC: 0.21584 (Simulation time: 0 hr 6 min 10 sec) 
Heartbeat CPU  0 instructions:  166000000 cycles:  370948739 heartbeat IPC: 0.34248 cumulative IPC: 0.21705 (Simulation time: 0 hr 6 min 12 sec) 
Heartbeat CPU  0 instructions:  167000001 cycles:  372608697 heartbeat IPC: 0.60243 cumulative IPC: 0.21915 (Simulation time: 0 hr 6 min 13 sec) 
Heartbeat CPU  0 instructions:  168000000 cycles:  375285989 heartbeat IPC: 0.37351 cumulative IPC: 0.22049 (Simulation time: 0 hr 6 min 15 sec) 
Heartbeat CPU  0 instructions:  169000001 cycles:  381246596 heartbeat IPC: 0.16777 cumulative IPC: 0.21949 (Simulation time: 0 hr 6 min 19 sec) 
Heartbeat CPU  0 instructions:  170000002 cycles:  385228491 heartbeat IPC: 0.25114 cumulative IPC: 0.21988 (Simulation time: 0 hr 6 min 23 sec) 
Heartbeat CPU  0 instructions:  171000000 cycles:  388824382 heartbeat IPC: 0.27809 cumulative IPC: 0.22053 (Simulation time: 0 hr 6 min 26 sec) 
Heartbeat CPU  0 instructions:  172000000 cycles:  391526655 heartbeat IPC: 0.37006 cumulative IPC: 0.22178 (Simulation time: 0 hr 6 min 28 sec) 
Heartbeat CPU  0 instructions:  173000000 cycles:  396839884 heartbeat IPC: 0.18821 cumulative IPC: 0.22124 (Simulation time: 0 hr 6 min 33 sec) 
Heartbeat CPU  0 instructions:  174000000 cycles:  407928955 heartbeat IPC: 0.09018 cumulative IPC: 0.21698 (Simulation time: 0 hr 6 min 39 sec) 
Heartbeat CPU  0 instructions:  175000000 cycles:  409829646 heartbeat IPC: 0.52612 cumulative IPC: 0.21869 (Simulation time: 0 hr 6 min 41 sec) 
Heartbeat CPU  0 instructions:  176000000 cycles:  411402366 heartbeat IPC: 0.63584 cumulative IPC: 0.22059 (Simulation time: 0 hr 6 min 42 sec) 
Heartbeat CPU  0 instructions:  177000001 cycles:  415079859 heartbeat IPC: 0.27192 cumulative IPC: 0.22114 (Simulation time: 0 hr 6 min 45 sec) 
Heartbeat CPU  0 instructions:  178000001 cycles:  420075492 heartbeat IPC: 0.20017 cumulative IPC: 0.22084 (Simulation time: 0 hr 6 min 48 sec) 
Heartbeat CPU  0 instructions:  179000002 cycles:  424200513 heartbeat IPC: 0.24242 cumulative IPC: 0.22109 (Simulation time: 0 hr 6 min 52 sec) 
Heartbeat CPU  0 instructions:  180000000 cycles:  428204621 heartbeat IPC: 0.24974 cumulative IPC: 0.22141 (Simulation time: 0 hr 6 min 55 sec) 
Heartbeat CPU  0 instructions:  181000003 cycles:  430310556 heartbeat IPC: 0.47485 cumulative IPC: 0.22287 (Simulation time: 0 hr 6 min 58 sec) 
Heartbeat CPU  0 instructions:  182000000 cycles:  439439387 heartbeat IPC: 0.10954 cumulative IPC: 0.22010 (Simulation time: 0 hr 7 min 4 sec) 
Heartbeat CPU  0 instructions:  183000000 cycles:  447008934 heartbeat IPC: 0.13211 cumulative IPC: 0.21835 (Simulation time: 0 hr 7 min 8 sec) 
Heartbeat CPU  0 instructions:  184000000 cycles:  448756875 heartbeat IPC: 0.57210 cumulative IPC: 0.21996 (Simulation time: 0 hr 7 min 10 sec) 
Heartbeat CPU  0 instructions:  185000002 cycles:  450239638 heartbeat IPC: 0.67442 cumulative IPC: 0.22172 (Simulation time: 0 hr 7 min 12 sec) 
Heartbeat CPU  0 instructions:  186000000 cycles:  456454648 heartbeat IPC: 0.16090 cumulative IPC: 0.22075 (Simulation time: 0 hr 7 min 15 sec) 
Heartbeat CPU  0 instructions:  187000003 cycles:  460825604 heartbeat IPC: 0.22878 cumulative IPC: 0.22084 (Simulation time: 0 hr 7 min 19 sec) 
Heartbeat CPU  0 instructions:  188000000 cycles:  463627997 heartbeat IPC: 0.35684 cumulative IPC: 0.22180 (Simulation time: 0 hr 7 min 22 sec) 
Heartbeat CPU  0 instructions:  189000001 cycles:  467613126 heartbeat IPC: 0.25093 cumulative IPC: 0.22209 (Simulation time: 0 hr 7 min 25 sec) 
Heartbeat CPU  0 instructions:  190000001 cycles:  470194739 heartbeat IPC: 0.38735 cumulative IPC: 0.22315 (Simulation time: 0 hr 7 min 28 sec) 
Heartbeat CPU  0 instructions:  191000002 cycles:  481044148 heartbeat IPC: 0.09217 cumulative IPC: 0.21972 (Simulation time: 0 hr 7 min 35 sec) 
Heartbeat CPU  0 instructions:  192000000 cycles:  485940241 heartbeat IPC: 0.20424 cumulative IPC: 0.21954 (Simulation time: 0 hr 7 min 38 sec) 
Heartbeat CPU  0 instructions:  193000003 cycles:  487641513 heartbeat IPC: 0.58780 cumulative IPC: 0.22103 (Simulation time: 0 hr 7 min 39 sec) 
Heartbeat CPU  0 instructions:  194000001 cycles:  489746996 heartbeat IPC: 0.47495 cumulative IPC: 0.22229 (Simulation time: 0 hr 7 min 41 sec) 
Heartbeat CPU  0 instructions:  195000000 cycles:  496181426 heartbeat IPC: 0.15541 cumulative IPC: 0.22129 (Simulation time: 0 hr 7 min 45 sec) 
Heartbeat CPU  0 instructions:  196000000 cycles:  500023399 heartbeat IPC: 0.26028 cumulative IPC: 0.22163 (Simulation time: 0 hr 7 min 48 sec) 
Heartbeat CPU  0 instructions:  197000000 cycles:  503596710 heartbeat IPC: 0.27985 cumulative IPC: 0.22211 (Simulation time: 0 hr 7 min 52 sec) 
Heartbeat CPU  0 instructions:  198000000 cycles:  506446813 heartbeat IPC: 0.35086 cumulative IPC: 0.22295 (Simulation time: 0 hr 7 min 54 sec) 
Heartbeat CPU  0 instructions:  199000000 cycles:  510587395 heartbeat IPC: 0.24151 cumulative IPC: 0.22312 (Simulation time: 0 hr 7 min 58 sec) 
Heartbeat CPU  0 instructions:  200000000 cycles:  522797914 heartbeat IPC: 0.08190 cumulative IPC: 0.21934 (Simulation time: 0 hr 8 min 5 sec) 
Heartbeat CPU  0 instructions:  201000000 cycles:  524831721 heartbeat IPC: 0.49169 cumulative IPC: 0.22055 (Simulation time: 0 hr 8 min 7 sec) 
Heartbeat CPU  0 instructions:  202000002 cycles:  526466967 heartbeat IPC: 0.61153 cumulative IPC: 0.22194 (Simulation time: 0 hr 8 min 8 sec) 
Heartbeat CPU  0 instructions:  203000002 cycles:  529340353 heartbeat IPC: 0.34802 cumulative IPC: 0.22272 (Simulation time: 0 hr 8 min 10 sec) 
Heartbeat CPU  0 instructions:  204000000 cycles:  535138686 heartbeat IPC: 0.17246 cumulative IPC: 0.22210 (Simulation time: 0 hr 8 min 14 sec) 
Heartbeat CPU  0 instructions:  205000000 cycles:  539140956 heartbeat IPC: 0.24986 cumulative IPC: 0.22233 (Simulation time: 0 hr 8 min 18 sec) 
Heartbeat CPU  0 instructions:  206000000 cycles:  540400001 heartbeat IPC: 0.79425 cumulative IPC: 0.22385 (Simulation time: 0 hr 8 min 20 sec) 
Heartbeat CPU  0 instructions:  207000002 cycles:  558954659 heartbeat IPC: 0.05389 cumulative IPC: 0.21745 (Simulation time: 0 hr 8 min 29 sec) 
Heartbeat CPU  0 instructions:  208000000 cycles:  564155974 heartbeat IPC: 0.19226 cumulative IPC: 0.21718 (Simulation time: 0 hr 8 min 33 sec) 
Heartbeat CPU  0 instructions:  209000001 cycles:  574113943 heartbeat IPC: 0.10042 cumulative IPC: 0.21489 (Simulation time: 0 hr 8 min 40 sec) 
Heartbeat CPU  0 instructions:  210000000 cycles:  581973629 heartbeat IPC: 0.12723 cumulative IPC: 0.21355 (Simulation time: 0 hr 8 min 45 sec) 
Heartbeat CPU  0 instructions:  211000001 cycles:  587768875 heartbeat IPC: 0.17256 cumulative IPC: 0.21310 (Simulation time: 0 hr 8 min 49 sec) 
Heartbeat CPU  0 instructions:  212000000 cycles:  592569091 heartbeat IPC: 0.20832 cumulative IPC: 0.21305 (Simulation time: 0 hr 8 min 54 sec) 
Heartbeat CPU  0 instructions:  213000002 cycles:  597379661 heartbeat IPC: 0.20788 cumulative IPC: 0.21301 (Simulation time: 0 hr 8 min 57 sec) 
Heartbeat CPU  0 instructions:  214000001 cycles:  601158310 heartbeat IPC: 0.26464 cumulative IPC: 0.21337 (Simulation time: 0 hr 9 min 0 sec) 
Heartbeat CPU  0 instructions:  215000002 cycles:  604617992 heartbeat IPC: 0.28904 cumulative IPC: 0.21386 (Simulation time: 0 hr 9 min 2 sec) 
Heartbeat CPU  0 instructions:  216000000 cycles:  606946095 heartbeat IPC: 0.42953 cumulative IPC: 0.21479 (Simulation time: 0 hr 9 min 5 sec) 
Heartbeat CPU  0 instructions:  217000000 cycles:  609739691 heartbeat IPC: 0.35796 cumulative IPC: 0.21552 (Simulation time: 0 hr 9 min 8 sec) 
Heartbeat CPU  0 instructions:  218000002 cycles:  611907203 heartbeat IPC: 0.46136 cumulative IPC: 0.21650 (Simulation time: 0 hr 9 min 10 sec) 
Heartbeat CPU  0 instructions:  219000002 cycles:  614295575 heartbeat IPC: 0.41870 cumulative IPC: 0.21738 (Simulation time: 0 hr 9 min 13 sec) 
Heartbeat CPU  0 instructions:  220000000 cycles:  616444376 heartbeat IPC: 0.46537 cumulative IPC: 0.21835 (Simulation time: 0 hr 9 min 15 sec) 
Heartbeat CPU  0 instructions:  221000003 cycles:  619485879 heartbeat IPC: 0.32879 cumulative IPC: 0.21896 (Simulation time: 0 hr 9 min 18 sec) 
Heartbeat CPU  0 instructions:  222000003 cycles:  623023565 heartbeat IPC: 0.28267 cumulative IPC: 0.21937 (Simulation time: 0 hr 9 min 22 sec) 
Heartbeat CPU  0 instructions:  223000002 cycles:  626742109 heartbeat IPC: 0.26892 cumulative IPC: 0.21970 (Simulation time: 0 hr 9 min 25 sec) 
Heartbeat CPU  0 instructions:  224000000 cycles:  629097451 heartbeat IPC: 0.42457 cumulative IPC: 0.22055 (Simulation time: 0 hr 9 min 28 sec) 
Heartbeat CPU  0 instructions:  225000000 cycles:  632887076 heartbeat IPC: 0.26388 cumulative IPC: 0.22084 (Simulation time: 0 hr 9 min 31 sec) 
Heartbeat CPU  0 instructions:  226000000 cycles:  634715014 heartbeat IPC: 0.54706 cumulative IPC: 0.22189 (Simulation time: 0 hr 9 min 33 sec) 
Heartbeat CPU  0 instructions:  227000000 cycles:  645771565 heartbeat IPC: 0.09044 cumulative IPC: 0.21938 (Simulation time: 0 hr 9 min 40 sec) 
Heartbeat CPU  0 instructions:  228000000 cycles:  651600179 heartbeat IPC: 0.17157 cumulative IPC: 0.21891 (Simulation time: 0 hr 9 min 44 sec) 
Heartbeat CPU  0 instructions:  229000001 cycles:  653322375 heartbeat IPC: 0.58065 cumulative IPC: 0.21997 (Simulation time: 0 hr 9 min 45 sec) 
Heartbeat CPU  0 instructions:  230000000 cycles:  655132516 heartbeat IPC: 0.55244 cumulative IPC: 0.22099 (Simulation time: 0 hr 9 min 47 sec) 
Heartbeat CPU  0 instructions:  231000000 cycles:  661796634 heartbeat IPC: 0.15006 cumulative IPC: 0.22020 (Simulation time: 0 hr 9 min 51 sec) 
Heartbeat CPU  0 instructions:  232000000 cycles:  665657660 heartbeat IPC: 0.25900 cumulative IPC: 0.22045 (Simulation time: 0 hr 9 min 54 sec) 
Heartbeat CPU  0 instructions:  233000000 cycles:  669648150 heartbeat IPC: 0.25060 cumulative IPC: 0.22065 (Simulation time: 0 hr 9 min 58 sec) 
Heartbeat CPU  0 instructions:  234000002 cycles:  672370813 heartbeat IPC: 0.36729 cumulative IPC: 0.22131 (Simulation time: 0 hr 10 min 0 sec) 
Heartbeat CPU  0 instructions:  235000000 cycles:  677753763 heartbeat IPC: 0.18577 cumulative IPC: 0.22099 (Simulation time: 0 hr 10 min 5 sec) 
Heartbeat CPU  0 instructions:  236000000 cycles:  688713185 heartbeat IPC: 0.09125 cumulative IPC: 0.21871 (Simulation time: 0 hr 10 min 12 sec) 
Heartbeat CPU  0 instructions:  237000002 cycles:  690585796 heartbeat IPC: 0.53401 cumulative IPC: 0.21965 (Simulation time: 0 hr 10 min 13 sec) 
Heartbeat CPU  0 instructions:  238000002 cycles:  692147924 heartbeat IPC: 0.64015 cumulative IPC: 0.22070 (Simulation time: 0 hr 10 min 15 sec) 
Heartbeat CPU  0 instructions:  239000001 cycles:  695960549 heartbeat IPC: 0.26229 cumulative IPC: 0.22096 (Simulation time: 0 hr 10 min 17 sec) 
Heartbeat CPU  0 instructions:  240000000 cycles:  700841811 heartbeat IPC: 0.20486 cumulative IPC: 0.22083 (Simulation time: 0 hr 10 min 21 sec) 
Heartbeat CPU  0 instructions:  241000001 cycles:  704900651 heartbeat IPC: 0.24638 cumulative IPC: 0.22100 (Simulation time: 0 hr 10 min 24 sec) 
Heartbeat CPU  0 instructions:  242000002 cycles:  708717649 heartbeat IPC: 0.26199 cumulative IPC: 0.22124 (Simulation time: 0 hr 10 min 27 sec) 
Heartbeat CPU  0 instructions:  243000002 cycles:  710997988 heartbeat IPC: 0.43853 cumulative IPC: 0.22201 (Simulation time: 0 hr 10 min 30 sec) 
Heartbeat CPU  0 instructions:  244000000 cycles:  719130994 heartbeat IPC: 0.12296 cumulative IPC: 0.22077 (Simulation time: 0 hr 10 min 36 sec) 
Heartbeat CPU  0 instructions:  245000001 cycles:  727618159 heartbeat IPC: 0.11783 cumulative IPC: 0.21945 (Simulation time: 0 hr 10 min 41 sec) 
Heartbeat CPU  0 instructions:  246000001 cycles:  729389218 heartbeat IPC: 0.56463 cumulative IPC: 0.22037 (Simulation time: 0 hr 10 min 42 sec) 
Heartbeat CPU  0 instructions:  247000001 cycles:  730877279 heartbeat IPC: 0.67202 cumulative IPC: 0.22139 (Simulation time: 0 hr 10 min 44 sec) 
Heartbeat CPU  0 instructions:  248000000 cycles:  735888209 heartbeat IPC: 0.19956 cumulative IPC: 0.22122 (Simulation time: 0 hr 10 min 47 sec) 
Heartbeat CPU  0 instructions:  249000000 cycles:  740502743 heartbeat IPC: 0.21671 cumulative IPC: 0.22119 (Simulation time: 0 hr 10 min 50 sec) 
Heartbeat CPU  0 instructions:  250000000 cycles:  743620327 heartbeat IPC: 0.32076 cumulative IPC: 0.22165 (Simulation time: 0 hr 10 min 53 sec) 
Heartbeat CPU  0 instructions:  251000001 cycles:  747941278 heartbeat IPC: 0.23143 cumulative IPC: 0.22171 (Simulation time: 0 hr 10 min 57 sec) 
Heartbeat CPU  0 instructions:  252000000 cycles:  749761060 heartbeat IPC: 0.54952 cumulative IPC: 0.22259 (Simulation time: 0 hr 10 min 59 sec) 
Heartbeat CPU  0 instructions:  253000000 cycles:  759378669 heartbeat IPC: 0.10398 cumulative IPC: 0.22094 (Simulation time: 0 hr 11 min 5 sec) 
Heartbeat CPU  0 instructions:  254000000 cycles:  766546515 heartbeat IPC: 0.13951 cumulative IPC: 0.22010 (Simulation time: 0 hr 11 min 10 sec) 
Heartbeat CPU  0 instructions:  255000002 cycles:  768289286 heartbeat IPC: 0.57380 cumulative IPC: 0.22098 (Simulation time: 0 hr 11 min 11 sec) 
Heartbeat CPU  0 instructions:  256000000 cycles:  769869685 heartbeat IPC: 0.63275 cumulative IPC: 0.22191 (Simulation time: 0 hr 11 min 13 sec) 
Heartbeat CPU  0 instructions:  257000000 cycles:  776393551 heartbeat IPC: 0.15328 cumulative IPC: 0.22128 (Simulation time: 0 hr 11 min 16 sec) 
Heartbeat CPU  0 instructions:  258000001 cycles:  780451476 heartbeat IPC: 0.24643 cumulative IPC: 0.22142 (Simulation time: 0 hr 11 min 20 sec) 
Heartbeat CPU  0 instructions:  259000003 cycles:  783476171 heartbeat IPC: 0.33061 cumulative IPC: 0.22188 (Simulation time: 0 hr 11 min 23 sec) 
Heartbeat CPU  0 instructions:  260000000 cycles:  787216277 heartbeat IPC: 0.26737 cumulative IPC: 0.22212 (Simulation time: 0 hr 11 min 26 sec) 
Heartbeat CPU  0 instructions:  261000000 cycles:  790144469 heartbeat IPC: 0.34151 cumulative IPC: 0.22260 (Simulation time: 0 hr 11 min 29 sec) 
Heartbeat CPU  0 instructions:  262000000 cycles:  801210111 heartbeat IPC: 0.09037 cumulative IPC: 0.22061 (Simulation time: 0 hr 11 min 36 sec) 
Heartbeat CPU  0 instructions:  263000002 cycles:  805486450 heartbeat IPC: 0.23385 cumulative IPC: 0.22069 (Simulation time: 0 hr 11 min 39 sec) 
Heartbeat CPU  0 instructions:  264000000 cycles:  807174384 heartbeat IPC: 0.59244 cumulative IPC: 0.22153 (Simulation time: 0 hr 11 min 40 sec) 
Heartbeat CPU  0 instructions:  265000003 cycles:  809546859 heartbeat IPC: 0.42150 cumulative IPC: 0.22217 (Simulation time: 0 hr 11 min 42 sec) 
Heartbeat CPU  0 instructions:  266000002 cycles:  815756394 heartbeat IPC: 0.16104 cumulative IPC: 0.22166 (Simulation time: 0 hr 11 min 46 sec) 
Heartbeat CPU  0 instructions:  267000000 cycles:  819641487 heartbeat IPC: 0.25739 cumulative IPC: 0.22185 (Simulation time: 0 hr 11 min 50 sec) 
Heartbeat CPU  0 instructions:  268000000 cycles:  823236852 heartbeat IPC: 0.27814 cumulative IPC: 0.22212 (Simulation time: 0 hr 11 min 53 sec) 
Heartbeat CPU  0 instructions:  269000002 cycles:  825962214 heartbeat IPC: 0.36692 cumulative IPC: 0.22264 (Simulation time: 0 hr 11 min 55 sec) 
Heartbeat CPU  0 instructions:  270000001 cycles:  830580357 heartbeat IPC: 0.21654 cumulative IPC: 0.22260 (Simulation time: 0 hr 11 min 59 sec) 
Heartbeat CPU  0 instructions:  271000003 cycles:  842380306 heartbeat IPC: 0.08475 cumulative IPC: 0.22050 (Simulation time: 0 hr 12 min 6 sec) 
Heartbeat CPU  0 instructions:  272000000 cycles:  844365984 heartbeat IPC: 0.50360 cumulative IPC: 0.22123 (Simulation time: 0 hr 12 min 8 sec) 
Heartbeat CPU  0 instructions:  273000003 cycles:  845963196 heartbeat IPC: 0.62609 cumulative IPC: 0.22206 (Simulation time: 0 hr 12 min 9 sec) 
Heartbeat CPU  0 instructions:  274000002 cycles:  849153557 heartbeat IPC: 0.31344 cumulative IPC: 0.22243 (Simulation time: 0 hr 12 min 11 sec) 
Heartbeat CPU  0 instructions:  275000000 cycles:  854665824 heartbeat IPC: 0.18141 cumulative IPC: 0.22214 (Simulation time: 0 hr 12 min 15 sec) 
Heartbeat CPU  0 instructions:  276000000 cycles:  858674428 heartbeat IPC: 0.24946 cumulative IPC: 0.22228 (Simulation time: 0 hr 12 min 19 sec) 
Heartbeat CPU  0 instructions:  277000001 cycles:  862474884 heartbeat IPC: 0.26313 cumulative IPC: 0.22247 (Simulation time: 0 hr 12 min 22 sec) 
Heartbeat CPU  0 instructions:  278000000 cycles:  864984432 heartbeat IPC: 0.39848 cumulative IPC: 0.22303 (Simulation time: 0 hr 12 min 24 sec) 
Heartbeat CPU  0 instructions:  279000000 cycles:  872167997 heartbeat IPC: 0.13921 cumulative IPC: 0.22228 (Simulation time: 0 hr 12 min 30 sec) 
Heartbeat CPU  0 instructions:  280000000 cycles:  881560774 heartbeat IPC: 0.10646 cumulative IPC: 0.22094 (Simulation time: 0 hr 12 min 35 sec) 
Heartbeat CPU  0 instructions:  281000000 cycles:  883363867 heartbeat IPC: 0.55460 cumulative IPC: 0.22168 (Simulation time: 0 hr 12 min 37 sec) 
Heartbeat CPU  0 instructions:  282000000 cycles:  884892393 heartbeat IPC: 0.65423 cumulative IPC: 0.22249 (Simulation time: 0 hr 12 min 38 sec) 
Heartbeat CPU  0 instructions:  283000003 cycles:  889254408 heartbeat IPC: 0.22925 cumulative IPC: 0.22253 (Simulation time: 0 hr 12 min 41 sec) 
Heartbeat CPU  0 instructions:  284000000 cycles:  893510313 heartbeat IPC: 0.23497 cumulative IPC: 0.22259 (Simulation time: 0 hr 12 min 44 sec) 
Heartbeat CPU  0 instructions:  285000001 cycles:  897620180 heartbeat IPC: 0.24332 cumulative IPC: 0.22269 (Simulation time: 0 hr 12 min 48 sec) 
Heartbeat CPU  0 instructions:  286000000 cycles:  901569921 heartbeat IPC: 0.25318 cumulative IPC: 0.22284 (Simulation time: 0 hr 12 min 51 sec) 
Heartbeat CPU  0 instructions:  287000003 cycles:  903793132 heartbeat IPC: 0.44980 cumulative IPC: 0.22344 (Simulation time: 0 hr 12 min 54 sec) 
Heartbeat CPU  0 instructions:  288000000 cycles:  912458153 heartbeat IPC: 0.11541 cumulative IPC: 0.22233 (Simulation time: 0 hr 13 min 0 sec) 
Heartbeat CPU  0 instructions:  289000000 cycles:  920453262 heartbeat IPC: 0.12508 cumulative IPC: 0.22142 (Simulation time: 0 hr 13 min 4 sec) 
Heartbeat CPU  0 instructions:  290000000 cycles:  922208234 heartbeat IPC: 0.56981 cumulative IPC: 0.22214 (Simulation time: 0 hr 13 min 6 sec) 
Heartbeat CPU  0 instructions:  291000000 cycles:  923651359 heartbeat IPC: 0.69294 cumulative IPC: 0.22293 (Simulation time: 0 hr 13 min 7 sec) 
Heartbeat CPU  0 instructions:  292000000 cycles:  929310759 heartbeat IPC: 0.17670 cumulative IPC: 0.22263 (Simulation time: 0 hr 13 min 11 sec) 
Heartbeat CPU  0 instructions:  293000002 cycles:  933972214 heartbeat IPC: 0.21453 cumulative IPC: 0.22258 (Simulation time: 0 hr 13 min 14 sec) 
Heartbeat CPU  0 instructions:  294000001 cycles:  936793209 heartbeat IPC: 0.35448 cumulative IPC: 0.22301 (Simulation time: 0 hr 13 min 17 sec) 
Heartbeat CPU  0 instructions:  295000003 cycles:  940908800 heartbeat IPC: 0.24298 cumulative IPC: 0.22310 (Simulation time: 0 hr 13 min 20 sec) 
Heartbeat CPU  0 instructions:  296000000 cycles:  942935618 heartbeat IPC: 0.49338 cumulative IPC: 0.22373 (Simulation time: 0 hr 13 min 23 sec) 
Heartbeat CPU  0 instructions:  297000000 cycles:  953469211 heartbeat IPC: 0.09493 cumulative IPC: 0.22220 (Simulation time: 0 hr 13 min 30 sec) 
Heartbeat CPU  0 instructions:  298000000 cycles:  959298193 heartbeat IPC: 0.17156 cumulative IPC: 0.22187 (Simulation time: 0 hr 13 min 33 sec) 
Heartbeat CPU  0 instructions:  299000000 cycles:  961022997 heartbeat IPC: 0.57978 cumulative IPC: 0.22256 (Simulation time: 0 hr 13 min 35 sec) 
Heartbeat CPU  0 instructions:  300000000 cycles:  963901612 heartbeat IPC: 0.34739 cumulative IPC: 0.22296 (Simulation time: 0 hr 13 min 37 sec) 
Heartbeat CPU  0 instructions:  301000001 cycles:  969414371 heartbeat IPC: 0.18140 cumulative IPC: 0.22271 (Simulation time: 0 hr 13 min 41 sec) 
Heartbeat CPU  0 instructions:  302000002 cycles:  974147430 heartbeat IPC: 0.21128 cumulative IPC: 0.22265 (Simulation time: 0 hr 13 min 44 sec) 
Heartbeat CPU  0 instructions:  303000002 cycles:  978573919 heartbeat IPC: 0.22591 cumulative IPC: 0.22266 (Simulation time: 0 hr 13 min 47 sec) 
Heartbeat CPU  0 instructions:  304000000 cycles:  981449717 heartbeat IPC: 0.34773 cumulative IPC: 0.22306 (Simulation time: 0 hr 13 min 50 sec) 
Heartbeat CPU  0 instructions:  305000003 cycles:  985590928 heartbeat IPC: 0.24148 cumulative IPC: 0.22314 (Simulation time: 0 hr 13 min 53 sec) 
Heartbeat CPU  0 instructions:  306000003 cycles:  987891227 heartbeat IPC: 0.43473 cumulative IPC: 0.22367 (Simulation time: 0 hr 13 min 56 sec) 
Heartbeat CPU  0 instructions:  307000000 cycles:  998589044 heartbeat IPC: 0.09348 cumulative IPC: 0.22217 (Simulation time: 0 hr 14 min 3 sec) 
Heartbeat CPU  0 instructions:  308000000 cycles: 1004045068 heartbeat IPC: 0.18328 cumulative IPC: 0.22195 (Simulation time: 0 hr 14 min 6 sec) 
Heartbeat CPU  0 instructions:  309000001 cycles: 1005774043 heartbeat IPC: 0.57838 cumulative IPC: 0.22260 (Simulation time: 0 hr 14 min 8 sec) 
Heartbeat CPU  0 instructions:  310000000 cycles: 1008778372 heartbeat IPC: 0.33285 cumulative IPC: 0.22295 (Simulation time: 0 hr 14 min 10 sec) 
Heartbeat CPU  0 instructions:  311000001 cycles: 1014083540 heartbeat IPC: 0.18850 cumulative IPC: 0.22276 (Simulation time: 0 hr 14 min 13 sec) 
Heartbeat CPU  0 instructions:  312000000 cycles: 1019086096 heartbeat IPC: 0.19990 cumulative IPC: 0.22264 (Simulation time: 0 hr 14 min 17 sec) 
Heartbeat CPU  0 instructions:  313000000 cycles: 1023406465 heartbeat IPC: 0.23146 cumulative IPC: 0.22268 (Simulation time: 0 hr 14 min 20 sec) 
Heartbeat CPU  0 instructions:  314000003 cycles: 1025350282 heartbeat IPC: 0.51445 cumulative IPC: 0.22327 (Simulation time: 0 hr 14 min 23 sec) 
Heartbeat CPU  0 instructions:  315000000 cycles: 1036881745 heartbeat IPC: 0.08672 cumulative IPC: 0.22165 (Simulation time: 0 hr 14 min 29 sec) 
Heartbeat CPU  0 instructions:  316000000 cycles: 1048158000 heartbeat IPC: 0.08868 cumulative IPC: 0.22012 (Simulation time: 0 hr 14 min 35 sec) 
Heartbeat CPU  0 instructions:  317000002 cycles: 1055777848 heartbeat IPC: 0.13124 cumulative IPC: 0.21944 (Simulation time: 0 hr 14 min 41 sec) 
Heartbeat CPU  0 instructions:  318000000 cycles: 1064162258 heartbeat IPC: 0.11927 cumulative IPC: 0.21859 (Simulation time: 0 hr 14 min 47 sec) 
Heartbeat CPU  0 instructions:  319000001 cycles: 1070622161 heartbeat IPC: 0.15480 cumulative IPC: 0.21818 (Simulation time: 0 hr 14 min 51 sec) 
Heartbeat CPU  0 instructions:  320000000 cycles: 1075363834 heartbeat IPC: 0.21090 cumulative IPC: 0.21815 (Simulation time: 0 hr 14 min 55 sec) 
Heartbeat CPU  0 instructions:  321000003 cycles: 1081338583 heartbeat IPC: 0.16737 cumulative IPC: 0.21785 (Simulation time: 0 hr 14 min 59 sec) 
Heartbeat CPU  0 instructions:  322000001 cycles: 1084938056 heartbeat IPC: 0.27782 cumulative IPC: 0.21806 (Simulation time: 0 hr 15 min 2 sec) 
Heartbeat CPU  0 instructions:  323000002 cycles: 1088643926 heartbeat IPC: 0.26984 cumulative IPC: 0.21825 (Simulation time: 0 hr 15 min 5 sec) 
Heartbeat CPU  0 instructions:  324000000 cycles: 1091465171 heartbeat IPC: 0.35445 cumulative IPC: 0.21862 (Simulation time: 0 hr 15 min 7 sec) 
Heartbeat CPU  0 instructions:  325000000 cycles: 1094141416 heartbeat IPC: 0.37366 cumulative IPC: 0.21903 (Simulation time: 0 hr 15 min 10 sec) 
Heartbeat CPU  0 instructions:  326000002 cycles: 1096351038 heartbeat IPC: 0.45257 cumulative IPC: 0.21953 (Simulation time: 0 hr 15 min 13 sec) 
Heartbeat CPU  0 instructions:  327000001 cycles: 1099023666 heartbeat IPC: 0.37416 cumulative IPC: 0.21993 (Simulation time: 0 hr 15 min 16 sec) 
Heartbeat CPU  0 instructions:  328000000 cycles: 1100752390 heartbeat IPC: 0.57846 cumulative IPC: 0.22053 (Simulation time: 0 hr 15 min 18 sec) 
Heartbeat CPU  0 instructions:  329000001 cycles: 1102996912 heartbeat IPC: 0.44553 cumulative IPC: 0.22102 (Simulation time: 0 hr 15 min 20 sec) 
Heartbeat CPU  0 instructions:  330000000 cycles: 1107004517 heartbeat IPC: 0.24953 cumulative IPC: 0.22113 (Simulation time: 0 hr 15 min 24 sec) 
Heartbeat CPU  0 instructions:  331000002 cycles: 1110687350 heartbeat IPC: 0.27153 cumulative IPC: 0.22130 (Simulation time: 0 hr 15 min 28 sec) 
Heartbeat CPU  0 instructions:  332000000 cycles: 1113430352 heartbeat IPC: 0.36456 cumulative IPC: 0.22168 (Simulation time: 0 hr 15 min 30 sec) 
Heartbeat CPU  0 instructions:  333000003 cycles: 1117279652 heartbeat IPC: 0.25979 cumulative IPC: 0.22182 (Simulation time: 0 hr 15 min 34 sec) 
Heartbeat CPU  0 instructions:  334000000 cycles: 1119626352 heartbeat IPC: 0.42613 cumulative IPC: 0.22228 (Simulation time: 0 hr 15 min 36 sec) 
Heartbeat CPU  0 instructions:  335000001 cycles: 1126961258 heartbeat IPC: 0.13633 cumulative IPC: 0.22168 (Simulation time: 0 hr 15 min 41 sec) 
Heartbeat CPU  0 instructions:  336000000 cycles: 1136370150 heartbeat IPC: 0.10628 cumulative IPC: 0.22067 (Simulation time: 0 hr 15 min 47 sec) 
Heartbeat CPU  0 instructions:  337000000 cycles: 1138175843 heartbeat IPC: 0.55380 cumulative IPC: 0.22123 (Simulation time: 0 hr 15 min 49 sec) 
Heartbeat CPU  0 instructions:  338000000 cycles: 1139701782 heartbeat IPC: 0.65533 cumulative IPC: 0.22184 (Simulation time: 0 hr 15 min 50 sec) 
Heartbeat CPU  0 instructions:  339000001 cycles: 1145306132 heartbeat IPC: 0.17843 cumulative IPC: 0.22162 (Simulation time: 0 hr 15 min 54 sec) 
Heartbeat CPU  0 instructions:  340000000 cycles: 1149211616 heartbeat IPC: 0.25605 cumulative IPC: 0.22174 (Simulation time: 0 hr 15 min 57 sec) 
Heartbeat CPU  0 instructions:  341000003 cycles: 1154235113 heartbeat IPC: 0.19907 cumulative IPC: 0.22164 (Simulation time: 0 hr 16 min 0 sec) 
Heartbeat CPU  0 instructions:  342000001 cycles: 1158002443 heartbeat IPC: 0.26544 cumulative IPC: 0.22179 (Simulation time: 0 hr 16 min 3 sec) 
Heartbeat CPU  0 instructions:  343000003 cycles: 1162057660 heartbeat IPC: 0.24660 cumulative IPC: 0.22188 (Simulation time: 0 hr 16 min 7 sec) 
Heartbeat CPU  0 instructions:  344000000 cycles: 1164251082 heartbeat IPC: 0.45591 cumulative IPC: 0.22235 (Simulation time: 0 hr 16 min 9 sec) 
Heartbeat CPU  0 instructions:  345000001 cycles: 1173306590 heartbeat IPC: 0.11043 cumulative IPC: 0.22143 (Simulation time: 0 hr 16 min 15 sec) 
Heartbeat CPU  0 instructions:  346000000 cycles: 1180987419 heartbeat IPC: 0.13019 cumulative IPC: 0.22080 (Simulation time: 0 hr 16 min 20 sec) 
Heartbeat CPU  0 instructions:  347000000 cycles: 1182744590 heartbeat IPC: 0.56910 cumulative IPC: 0.22135 (Simulation time: 0 hr 16 min 21 sec) 
Heartbeat CPU  0 instructions:  348000000 cycles: 1184319291 heartbeat IPC: 0.63504 cumulative IPC: 0.22194 (Simulation time: 0 hr 16 min 23 sec) 
Heartbeat CPU  0 instructions:  349000000 cycles: 1190995271 heartbeat IPC: 0.14979 cumulative IPC: 0.22151 (Simulation time: 0 hr 16 min 27 sec) 
Heartbeat CPU  0 instructions:  350000000 cycles: 1194809564 heartbeat IPC: 0.26217 cumulative IPC: 0.22164 (Simulation time: 0 hr 16 min 30 sec) 
Heartbeat CPU  0 instructions:  351000002 cycles: 1199194155 heartbeat IPC: 0.22807 cumulative IPC: 0.22167 (Simulation time: 0 hr 16 min 33 sec) 
Heartbeat CPU  0 instructions:  352000000 cycles: 1202632275 heartbeat IPC: 0.29086 cumulative IPC: 0.22188 (Simulation time: 0 hr 16 min 36 sec) 
Heartbeat CPU  0 instructions:  353000001 cycles: 1206680993 heartbeat IPC: 0.24699 cumulative IPC: 0.22197 (Simulation time: 0 hr 16 min 39 sec) 
Heartbeat CPU  0 instructions:  354000001 cycles: 1208775520 heartbeat IPC: 0.47743 cumulative IPC: 0.22244 (Simulation time: 0 hr 16 min 42 sec) 
Heartbeat CPU  0 instructions:  355000002 cycles: 1218094802 heartbeat IPC: 0.10730 cumulative IPC: 0.22150 (Simulation time: 0 hr 16 min 48 sec) 
Heartbeat CPU  0 instructions:  356000000 cycles: 1225550081 heartbeat IPC: 0.13413 cumulative IPC: 0.22094 (Simulation time: 0 hr 16 min 53 sec) 
Heartbeat CPU  0 instructions:  357000002 cycles: 1227295153 heartbeat IPC: 0.57304 cumulative IPC: 0.22147 (Simulation time: 0 hr 16 min 54 sec) 
Heartbeat CPU  0 instructions:  358000000 cycles: 1229052205 heartbeat IPC: 0.56913 cumulative IPC: 0.22200 (Simulation time: 0 hr 16 min 56 sec) 
Heartbeat CPU  0 instructions:  359000001 cycles: 1235578499 heartbeat IPC: 0.15323 cumulative IPC: 0.22161 (Simulation time: 0 hr 17 min 0 sec) 
Heartbeat CPU  0 instructions:  360000000 cycles: 1239515015 heartbeat IPC: 0.25403 cumulative IPC: 0.22172 (Simulation time: 0 hr 17 min 3 sec) 
Heartbeat CPU  0 instructions:  361000001 cycles: 1243995836 heartbeat IPC: 0.22317 cumulative IPC: 0.22173 (Simulation time: 0 hr 17 min 6 sec) 
Heartbeat CPU  0 instructions:  362000000 cycles: 1247187302 heartbeat IPC: 0.31334 cumulative IPC: 0.22198 (Simulation time: 0 hr 17 min 9 sec) 
Heartbeat CPU  0 instructions:  363000000 cycles: 1251434137 heartbeat IPC: 0.23547 cumulative IPC: 0.22202 (Simulation time: 0 hr 17 min 12 sec) 
Heartbeat CPU  0 instructions:  364000000 cycles: 1253345832 heartbeat IPC: 0.52310 cumulative IPC: 0.22251 (Simulation time: 0 hr 17 min 15 sec) 
Heartbeat CPU  0 instructions:  365000003 cycles: 1262939945 heartbeat IPC: 0.10423 cumulative IPC: 0.22156 (Simulation time: 0 hr 17 min 21 sec) 
Heartbeat CPU  0 instructions:  366000000 cycles: 1270191465 heartbeat IPC: 0.13790 cumulative IPC: 0.22106 (Simulation time: 0 hr 17 min 26 sec) 
Heartbeat CPU  0 instructions:  367000001 cycles: 1271934708 heartbeat IPC: 0.57364 cumulative IPC: 0.22157 (Simulation time: 0 hr 17 min 27 sec) 
Heartbeat CPU  0 instructions:  368000000 cycles: 1273917460 heartbeat IPC: 0.50435 cumulative IPC: 0.22203 (Simulation time: 0 hr 17 min 29 sec) 
Heartbeat CPU  0 instructions:  369000001 cycles: 1280255921 heartbeat IPC: 0.15777 cumulative IPC: 0.22170 (Simulation time: 0 hr 17 min 33 sec) 
Heartbeat CPU  0 instructions:  370000003 cycles: 1284296807 heartbeat IPC: 0.24747 cumulative IPC: 0.22178 (Simulation time: 0 hr 17 min 35 sec) 
Heartbeat CPU  0 instructions:  371000001 cycles: 1288882000 heartbeat IPC: 0.21809 cumulative IPC: 0.22177 (Simulation time: 0 hr 17 min 39 sec) 
Heartbeat CPU  0 instructions:  372000000 cycles: 1291832093 heartbeat IPC: 0.33897 cumulative IPC: 0.22205 (Simulation time: 0 hr 17 min 42 sec) 
Heartbeat CPU  0 instructions:  373000003 cycles: 1296114502 heartbeat IPC: 0.23351 cumulative IPC: 0.22209 (Simulation time: 0 hr 17 min 45 sec) 
Heartbeat CPU  0 instructions:  374000001 cycles: 1297866128 heartbeat IPC: 0.57090 cumulative IPC: 0.22259 (Simulation time: 0 hr 17 min 48 sec) 
Heartbeat CPU  0 instructions:  375000003 cycles: 1307708823 heartbeat IPC: 0.10160 cumulative IPC: 0.22163 (Simulation time: 0 hr 17 min 54 sec) 
Heartbeat CPU  0 instructions:  376000000 cycles: 1314718983 heartbeat IPC: 0.14265 cumulative IPC: 0.22118 (Simulation time: 0 hr 17 min 58 sec) 
Heartbeat CPU  0 instructions:  377000000 cycles: 1316446718 heartbeat IPC: 0.57879 cumulative IPC: 0.22168 (Simulation time: 0 hr 18 min 0 sec) 
Heartbeat CPU  0 instructions:  378000002 cycles: 1318706917 heartbeat IPC: 0.44244 cumulative IPC: 0.22207 (Simulation time: 0 hr 18 min 2 sec) 
Heartbeat CPU  0 instructions:  379000002 cycles: 1324821312 heartbeat IPC: 0.16355 cumulative IPC: 0.22179 (Simulation time: 0 hr 18 min 5 sec) 
Heartbeat CPU  0 instructions:  380000000 cycles: 1329008907 heartbeat IPC: 0.23880 cumulative IPC: 0.22185 (Simulation time: 0 hr 18 min 8 sec) 
Heartbeat CPU  0 instructions:  381000000 cycles: 1333635122 heartbeat IPC: 0.21616 cumulative IPC: 0.22183 (Simulation time: 0 hr 18 min 12 sec) 
Heartbeat CPU  0 instructions:  382000003 cycles: 1336483356 heartbeat IPC: 0.35110 cumulative IPC: 0.22212 (Simulation time: 0 hr 18 min 15 sec) 
Heartbeat CPU  0 instructions:  383000001 cycles: 1340753677 heartbeat IPC: 0.23417 cumulative IPC: 0.22216 (Simulation time: 0 hr 18 min 18 sec) 
Heartbeat CPU  0 instructions:  384000000 cycles: 1342493292 heartbeat IPC: 0.57484 cumulative IPC: 0.22264 (Simulation time: 0 hr 18 min 20 sec) 
Heartbeat CPU  0 instructions:  385000000 cycles: 1352891422 heartbeat IPC: 0.09617 cumulative IPC: 0.22162 (Simulation time: 0 hr 18 min 27 sec) 
Heartbeat CPU  0 instructions:  386000002 cycles: 1359321134 heartbeat IPC: 0.15553 cumulative IPC: 0.22129 (Simulation time: 0 hr 18 min 31 sec) 
Heartbeat CPU  0 instructions:  387000000 cycles: 1361054070 heartbeat IPC: 0.57705 cumulative IPC: 0.22176 (Simulation time: 0 hr 18 min 33 sec) 
Heartbeat CPU  0 instructions:  388000000 cycles: 1363569931 heartbeat IPC: 0.39748 cumulative IPC: 0.22210 (Simulation time: 0 hr 18 min 35 sec) 
Heartbeat CPU  0 instructions:  389000001 cycles: 1369413144 heartbeat IPC: 0.17114 cumulative IPC: 0.22187 (Simulation time: 0 hr 18 min 38 sec) 
Heartbeat CPU  0 instructions:  390000002 cycles: 1373801026 heartbeat IPC: 0.22790 cumulative IPC: 0.22190 (Simulation time: 0 hr 18 min 41 sec) 
Heartbeat CPU  0 instructions:  391000003 cycles: 1378370216 heartbeat IPC: 0.21886 cumulative IPC: 0.22188 (Simulation time: 0 hr 18 min 45 sec) 
Heartbeat CPU  0 instructions:  392000000 cycles: 1381218169 heartbeat IPC: 0.35113 cumulative IPC: 0.22216 (Simulation time: 0 hr 18 min 48 sec) 
Heartbeat CPU  0 instructions:  393000003 cycles: 1385421282 heartbeat IPC: 0.23792 cumulative IPC: 0.22221 (Simulation time: 0 hr 18 min 51 sec) 
Heartbeat CPU  0 instructions:  394000002 cycles: 1387075243 heartbeat IPC: 0.60461 cumulative IPC: 0.22269 (Simulation time: 0 hr 18 min 53 sec) 
Heartbeat CPU  0 instructions:  395000001 cycles: 1397947279 heartbeat IPC: 0.09198 cumulative IPC: 0.22163 (Simulation time: 0 hr 19 min 0 sec) 
Heartbeat CPU  0 instructions:  396000000 cycles: 1403951939 heartbeat IPC: 0.16654 cumulative IPC: 0.22138 (Simulation time: 0 hr 19 min 4 sec) 
Heartbeat CPU  0 instructions:  397000000 cycles: 1405678455 heartbeat IPC: 0.57920 cumulative IPC: 0.22184 (Simulation time: 0 hr 19 min 5 sec) 
Heartbeat CPU  0 instructions:  398000000 cycles: 1408436198 heartbeat IPC: 0.36262 cumulative IPC: 0.22213 (Simulation time: 0 hr 19 min 7 sec) 
Heartbeat CPU  0 instructions:  399000001 cycles: 1414046151 heartbeat IPC: 0.17825 cumulative IPC: 0.22195 (Simulation time: 0 hr 19 min 11 sec) 
Heartbeat CPU  0 instructions:  400000000 cycles: 1418662573 heartbeat IPC: 0.21662 cumulative IPC: 0.22193 (Simulation time: 0 hr 19 min 14 sec) 
Heartbeat CPU  0 instructions:  401000000 cycles: 1423165798 heartbeat IPC: 0.22206 cumulative IPC: 0.22193 (Simulation time: 0 hr 19 min 18 sec) 
Heartbeat CPU  0 instructions:  402000000 cycles: 1426008824 heartbeat IPC: 0.35174 cumulative IPC: 0.22220 (Simulation time: 0 hr 19 min 21 sec) 
Heartbeat CPU  0 instructions:  403000000 cycles: 1430091185 heartbeat IPC: 0.24496 cumulative IPC: 0.22227 (Simulation time: 0 hr 19 min 24 sec) 
Heartbeat CPU  0 instructions:  404000000 cycles: 1432302538 heartbeat IPC: 0.45221 cumulative IPC: 0.22264 (Simulation time: 0 hr 19 min 26 sec) 
Heartbeat CPU  0 instructions:  405000002 cycles: 1442904670 heartbeat IPC: 0.09432 cumulative IPC: 0.22165 (Simulation time: 0 hr 19 min 33 sec) 
Heartbeat CPU  0 instructions:  406000000 cycles: 1448554991 heartbeat IPC: 0.17698 cumulative IPC: 0.22147 (Simulation time: 0 hr 19 min 37 sec) 
Heartbeat CPU  0 instructions:  407000000 cycles: 1450274185 heartbeat IPC: 0.58167 cumulative IPC: 0.22192 (Simulation time: 0 hr 19 min 38 sec) 
Heartbeat CPU  0 instructions:  408000000 cycles: 1453202782 heartbeat IPC: 0.34146 cumulative IPC: 0.22217 (Simulation time: 0 hr 19 min 40 sec) 
Heartbeat CPU  0 instructions:  409000002 cycles: 1458623080 heartbeat IPC: 0.18449 cumulative IPC: 0.22202 (Simulation time: 0 hr 19 min 44 sec) 
Heartbeat CPU  0 instructions:  410000000 cycles: 1463487029 heartbeat IPC: 0.20559 cumulative IPC: 0.22197 (Simulation time: 0 hr 19 min 47 sec) 
Heartbeat CPU  0 instructions:  411000002 cycles: 1467851982 heartbeat IPC: 0.22910 cumulative IPC: 0.22199 (Simulation time: 0 hr 19 min 51 sec) 
Heartbeat CPU  0 instructions:  412000000 cycles: 1470668405 heartbeat IPC: 0.35506 cumulative IPC: 0.22226 (Simulation time: 0 hr 19 min 54 sec) 
Heartbeat CPU  0 instructions:  413000001 cycles: 1474725922 heartbeat IPC: 0.24646 cumulative IPC: 0.22233 (Simulation time: 0 hr 19 min 57 sec) 
Heartbeat CPU  0 instructions:  414000000 cycles: 1477204427 heartbeat IPC: 0.40347 cumulative IPC: 0.22264 (Simulation time: 0 hr 20 min 0 sec) 
Heartbeat CPU  0 instructions:  415000003 cycles: 1487883512 heartbeat IPC: 0.09364 cumulative IPC: 0.22167 (Simulation time: 0 hr 20 min 6 sec) 
Heartbeat CPU  0 instructions:  416000000 cycles: 1493133485 heartbeat IPC: 0.19048 cumulative IPC: 0.22156 (Simulation time: 0 hr 20 min 10 sec) 
Heartbeat CPU  0 instructions:  417000000 cycles: 1494837679 heartbeat IPC: 0.58679 cumulative IPC: 0.22199 (Simulation time: 0 hr 20 min 11 sec) 
Heartbeat CPU  0 instructions:  418000000 cycles: 1497956046 heartbeat IPC: 0.32068 cumulative IPC: 0.22221 (Simulation time: 0 hr 20 min 13 sec) 
Heartbeat CPU  0 instructions:  419000001 cycles: 1503148310 heartbeat IPC: 0.19259 cumulative IPC: 0.22210 (Simulation time: 0 hr 20 min 17 sec) 
Heartbeat CPU  0 instructions:  420000000 cycles: 1508276832 heartbeat IPC: 0.19499 cumulative IPC: 0.22201 (Simulation time: 0 hr 20 min 20 sec) 
Heartbeat CPU  0 instructions:  421000000 cycles: 1512515194 heartbeat IPC: 0.23594 cumulative IPC: 0.22205 (Simulation time: 0 hr 20 min 24 sec) 
Heartbeat CPU  0 instructions:  422000003 cycles: 1515342984 heartbeat IPC: 0.35363 cumulative IPC: 0.22230 (Simulation time: 0 hr 20 min 26 sec) 
Heartbeat CPU  0 instructions:  423000002 cycles: 1519324764 heartbeat IPC: 0.25114 cumulative IPC: 0.22238 (Simulation time: 0 hr 20 min 30 sec) 
Heartbeat CPU  0 instructions:  424000000 cycles: 1521997691 heartbeat IPC: 0.37412 cumulative IPC: 0.22266 (Simulation time: 0 hr 20 min 32 sec) 
Heartbeat CPU  0 instructions:  425000000 cycles: 1532867670 heartbeat IPC: 0.09200 cumulative IPC: 0.22169 (Simulation time: 0 hr 20 min 39 sec) 
Heartbeat CPU  0 instructions:  426000002 cycles: 1537752687 heartbeat IPC: 0.20471 cumulative IPC: 0.22164 (Simulation time: 0 hr 20 min 42 sec) 
Heartbeat CPU  0 instructions:  427000002 cycles: 1539449464 heartbeat IPC: 0.58935 cumulative IPC: 0.22206 (Simulation time: 0 hr 20 min 44 sec) 
Heartbeat CPU  0 instructions:  428000000 cycles: 1542720925 heartbeat IPC: 0.30567 cumulative IPC: 0.22225 (Simulation time: 0 hr 20 min 46 sec) 
Heartbeat CPU  0 instructions:  429000001 cycles: 1547754686 heartbeat IPC: 0.19866 cumulative IPC: 0.22217 (Simulation time: 0 hr 20 min 50 sec) 
Heartbeat CPU  0 instructions:  430000002 cycles: 1553056786 heartbeat IPC: 0.18860 cumulative IPC: 0.22205 (Simulation time: 0 hr 20 min 53 sec) 
Heartbeat CPU  0 instructions:  431000003 cycles: 1557215581 heartbeat IPC: 0.24045 cumulative IPC: 0.22210 (Simulation time: 0 hr 20 min 56 sec) 
Heartbeat CPU  0 instructions:  432000000 cycles: 1559047300 heartbeat IPC: 0.54593 cumulative IPC: 0.22249 (Simulation time: 0 hr 20 min 59 sec) 
Heartbeat CPU  0 instructions:  433000002 cycles: 1571491108 heartbeat IPC: 0.08036 cumulative IPC: 0.22132 (Simulation time: 0 hr 21 min 6 sec) 
Heartbeat CPU  0 instructions:  434000000 cycles: 1582008428 heartbeat IPC: 0.09508 cumulative IPC: 0.22044 (Simulation time: 0 hr 21 min 12 sec) 
Heartbeat CPU  0 instructions:  435000001 cycles: 1589785582 heartbeat IPC: 0.12858 cumulative IPC: 0.21997 (Simulation time: 0 hr 21 min 17 sec) 
Heartbeat CPU  0 instructions:  436000000 cycles: 1598273944 heartbeat IPC: 0.11781 cumulative IPC: 0.21941 (Simulation time: 0 hr 21 min 23 sec) 
Heartbeat CPU  0 instructions:  437000003 cycles: 1604538745 heartbeat IPC: 0.15962 cumulative IPC: 0.21916 (Simulation time: 0 hr 21 min 28 sec) 
Heartbeat CPU  0 instructions:  438000001 cycles: 1609291156 heartbeat IPC: 0.21042 cumulative IPC: 0.21914 (Simulation time: 0 hr 21 min 32 sec) 
Heartbeat CPU  0 instructions:  439000000 cycles: 1615233152 heartbeat IPC: 0.16829 cumulative IPC: 0.21894 (Simulation time: 0 hr 21 min 36 sec) 
Heartbeat CPU  0 instructions:  440000000 cycles: 1618858837 heartbeat IPC: 0.27581 cumulative IPC: 0.21907 (Simulation time: 0 hr 21 min 38 sec) 
Heartbeat CPU  0 instructions:  441000000 cycles: 1622517376 heartbeat IPC: 0.27333 cumulative IPC: 0.21920 (Simulation time: 0 hr 21 min 41 sec) 
Heartbeat CPU  0 instructions:  442000000 cycles: 1625290462 heartbeat IPC: 0.36061 cumulative IPC: 0.21945 (Simulation time: 0 hr 21 min 44 sec) 
Heartbeat CPU  0 instructions:  443000002 cycles: 1627949221 heartbeat IPC: 0.37612 cumulative IPC: 0.21972 (Simulation time: 0 hr 21 min 47 sec) 
Heartbeat CPU  0 instructions:  444000000 cycles: 1630108205 heartbeat IPC: 0.46318 cumulative IPC: 0.22006 (Simulation time: 0 hr 21 min 49 sec) 
Heartbeat CPU  0 instructions:  445000002 cycles: 1632865486 heartbeat IPC: 0.36268 cumulative IPC: 0.22031 (Simulation time: 0 hr 21 min 52 sec) 
Heartbeat CPU  0 instructions:  446000003 cycles: 1634606284 heartbeat IPC: 0.57445 cumulative IPC: 0.22070 (Simulation time: 0 hr 21 min 54 sec) 
Heartbeat CPU  0 instructions:  447000001 cycles: 1636774553 heartbeat IPC: 0.46120 cumulative IPC: 0.22103 (Simulation time: 0 hr 21 min 57 sec) 
Heartbeat CPU  0 instructions:  448000000 cycles: 1640866315 heartbeat IPC: 0.24439 cumulative IPC: 0.22109 (Simulation time: 0 hr 22 min 0 sec) 
Heartbeat CPU  0 instructions:  449000003 cycles: 1644604022 heartbeat IPC: 0.26754 cumulative IPC: 0.22120 (Simulation time: 0 hr 22 min 4 sec) 
Heartbeat CPU  0 instructions:  450000000 cycles: 1647273510 heartbeat IPC: 0.37460 cumulative IPC: 0.22146 (Simulation time: 0 hr 22 min 7 sec) 
Heartbeat CPU  0 instructions:  451000003 cycles: 1651043290 heartbeat IPC: 0.26527 cumulative IPC: 0.22157 (Simulation time: 0 hr 22 min 10 sec) 
Heartbeat CPU  0 instructions:  452000000 cycles: 1653331992 heartbeat IPC: 0.43693 cumulative IPC: 0.22188 (Simulation time: 0 hr 22 min 13 sec) 
Heartbeat CPU  0 instructions:  453000003 cycles: 1661042564 heartbeat IPC: 0.12969 cumulative IPC: 0.22143 (Simulation time: 0 hr 22 min 18 sec) 
Heartbeat CPU  0 instructions:  454000000 cycles: 1670124646 heartbeat IPC: 0.11011 cumulative IPC: 0.22080 (Simulation time: 0 hr 22 min 24 sec) 
Heartbeat CPU  0 instructions:  455000000 cycles: 1671902163 heartbeat IPC: 0.56258 cumulative IPC: 0.22118 (Simulation time: 0 hr 22 min 25 sec) 
Heartbeat CPU  0 instructions:  456000000 cycles: 1673414906 heartbeat IPC: 0.66105 cumulative IPC: 0.22159 (Simulation time: 0 hr 22 min 27 sec) 
Heartbeat CPU  0 instructions:  457000002 cycles: 1679172764 heartbeat IPC: 0.17368 cumulative IPC: 0.22142 (Simulation time: 0 hr 22 min 30 sec) 
Heartbeat CPU  0 instructions:  458000002 cycles: 1683087809 heartbeat IPC: 0.25542 cumulative IPC: 0.22151 (Simulation time: 0 hr 22 min 33 sec) 
Heartbeat CPU  0 instructions:  459000000 cycles: 1687919291 heartbeat IPC: 0.20698 cumulative IPC: 0.22146 (Simulation time: 0 hr 22 min 37 sec) 
Heartbeat CPU  0 instructions:  460000000 cycles: 1691758949 heartbeat IPC: 0.26044 cumulative IPC: 0.22155 (Simulation time: 0 hr 22 min 40 sec) 
Heartbeat CPU  0 instructions:  461000001 cycles: 1695915357 heartbeat IPC: 0.24059 cumulative IPC: 0.22160 (Simulation time: 0 hr 22 min 43 sec) 
Heartbeat CPU  0 instructions:  462000001 cycles: 1697971660 heartbeat IPC: 0.48631 cumulative IPC: 0.22194 (Simulation time: 0 hr 22 min 46 sec) 
Heartbeat CPU  0 instructions:  463000000 cycles: 1707329743 heartbeat IPC: 0.10686 cumulative IPC: 0.22128 (Simulation time: 0 hr 22 min 52 sec) 
Heartbeat CPU  0 instructions:  464000000 cycles: 1714725647 heartbeat IPC: 0.13521 cumulative IPC: 0.22089 (Simulation time: 0 hr 22 min 56 sec) 
Heartbeat CPU  0 instructions:  465000002 cycles: 1716476346 heartbeat IPC: 0.57120 cumulative IPC: 0.22127 (Simulation time: 0 hr 22 min 58 sec) 
Heartbeat CPU  0 instructions:  466000002 cycles: 1718279067 heartbeat IPC: 0.55472 cumulative IPC: 0.22163 (Simulation time: 0 hr 22 min 59 sec) 
Heartbeat CPU  0 instructions:  467000003 cycles: 1724764791 heartbeat IPC: 0.15418 cumulative IPC: 0.22137 (Simulation time: 0 hr 23 min 4 sec) 
Heartbeat CPU  0 instructions:  468000000 cycles: 1728748009 heartbeat IPC: 0.25105 cumulative IPC: 0.22144 (Simulation time: 0 hr 23 min 6 sec) 
Heartbeat CPU  0 instructions:  469000002 cycles: 1733271851 heartbeat IPC: 0.22105 cumulative IPC: 0.22144 (Simulation time: 0 hr 23 min 10 sec) 
Heartbeat CPU  0 instructions:  470000000 cycles: 1736379964 heartbeat IPC: 0.32174 cumulative IPC: 0.22162 (Simulation time: 0 hr 23 min 13 sec) 
Heartbeat CPU  0 instructions:  471000001 cycles: 1740677512 heartbeat IPC: 0.23269 cumulative IPC: 0.22165 (Simulation time: 0 hr 23 min 16 sec) 
Heartbeat CPU  0 instructions:  472000000 cycles: 1742523401 heartbeat IPC: 0.54174 cumulative IPC: 0.22200 (Simulation time: 0 hr 23 min 19 sec) 
Heartbeat CPU  0 instructions:  473000003 cycles: 1752205082 heartbeat IPC: 0.10329 cumulative IPC: 0.22132 (Simulation time: 0 hr 23 min 25 sec) 
Heartbeat CPU  0 instructions:  474000001 cycles: 1759367505 heartbeat IPC: 0.13962 cumulative IPC: 0.22098 (Simulation time: 0 hr 23 min 29 sec) 
Heartbeat CPU  0 instructions:  475000000 cycles: 1761110434 heartbeat IPC: 0.57375 cumulative IPC: 0.22134 (Simulation time: 0 hr 23 min 31 sec) 
Heartbeat CPU  0 instructions:  476000000 cycles: 1763176988 heartbeat IPC: 0.48390 cumulative IPC: 0.22166 (Simulation time: 0 hr 23 min 33 sec) 
Heartbeat CPU  0 instructions:  477000003 cycles: 1769453561 heartbeat IPC: 0.15932 cumulative IPC: 0.22143 (Simulation time: 0 hr 23 min 36 sec) 
Heartbeat CPU  0 instructions:  478000000 cycles: 1773514370 heartbeat IPC: 0.24626 cumulative IPC: 0.22149 (Simulation time: 0 hr 23 min 39 sec) 
Heartbeat CPU  0 instructions:  479000001 cycles: 1778188037 heartbeat IPC: 0.21396 cumulative IPC: 0.22147 (Simulation time: 0 hr 23 min 43 sec) 
Heartbeat CPU  0 instructions:  480000000 cycles: 1781116323 heartbeat IPC: 0.34150 cumulative IPC: 0.22167 (Simulation time: 0 hr 23 min 46 sec) 
Heartbeat CPU  0 instructions:  481000002 cycles: 1785419938 heartbeat IPC: 0.23236 cumulative IPC: 0.22170 (Simulation time: 0 hr 23 min 49 sec) 
Heartbeat CPU  0 instructions:  482000003 cycles: 1787159901 heartbeat IPC: 0.57473 cumulative IPC: 0.22206 (Simulation time: 0 hr 23 min 52 sec) 
Heartbeat CPU  0 instructions:  483000000 cycles: 1797161646 heartbeat IPC: 0.09998 cumulative IPC: 0.22135 (Simulation time: 0 hr 23 min 58 sec) 
Heartbeat CPU  0 instructions:  484000000 cycles: 1803963924 heartbeat IPC: 0.14701 cumulative IPC: 0.22106 (Simulation time: 0 hr 24 min 2 sec) 
Heartbeat CPU  0 instructions:  485000000 cycles: 1805692876 heartbeat IPC: 0.57839 cumulative IPC: 0.22142 (Simulation time: 0 hr 24 min 4 sec) 
Heartbeat CPU  0 instructions:  486000003 cycles: 1808049715 heartbeat IPC: 0.42430 cumulative IPC: 0.22169 (Simulation time: 0 hr 24 min 6 sec) 
Heartbeat CPU  0 instructions:  487000000 cycles: 1814047202 heartbeat IPC: 0.16674 cumulative IPC: 0.22150 (Simulation time: 0 hr 24 min 9 sec) 
Heartbeat CPU  0 instructions:  488000000 cycles: 1818321813 heartbeat IPC: 0.23394 cumulative IPC: 0.22153 (Simulation time: 0 hr 24 min 12 sec) 
Heartbeat CPU  0 instructions:  489000000 cycles: 1822964708 heartbeat IPC: 0.21538 cumulative IPC: 0.22152 (Simulation time: 0 hr 24 min 16 sec) 
Heartbeat CPU  0 instructions:  490000002 cycles: 1825792564 heartbeat IPC: 0.35363 cumulative IPC: 0.22173 (Simulation time: 0 hr 24 min 19 sec) 
Heartbeat CPU  0 instructions:  491000002 cycles: 1829969596 heartbeat IPC: 0.23940 cumulative IPC: 0.22177 (Simulation time: 0 hr 24 min 22 sec) 
Heartbeat CPU  0 instructions:  492000000 cycles: 1831660421 heartbeat IPC: 0.59143 cumulative IPC: 0.22212 (Simulation time: 0 hr 24 min 24 sec) 
Heartbeat CPU  0 instructions:  493000001 cycles: 1842297389 heartbeat IPC: 0.09401 cumulative IPC: 0.22136 (Simulation time: 0 hr 24 min 31 sec) 
Heartbeat CPU  0 instructions:  494000000 cycles: 1848527467 heartbeat IPC: 0.16051 cumulative IPC: 0.22114 (Simulation time: 0 hr 24 min 35 sec) 
Heartbeat CPU  0 instructions:  495000000 cycles: 1850254764 heartbeat IPC: 0.57894 cumulative IPC: 0.22149 (Simulation time: 0 hr 24 min 36 sec) 
Heartbeat CPU  0 instructions:  496000000 cycles: 1852866082 heartbeat IPC: 0.38295 cumulative IPC: 0.22173 (Simulation time: 0 hr 24 min 38 sec) 
Heartbeat CPU  0 instructions:  497000000 cycles: 1858606780 heartbeat IPC: 0.17419 cumulative IPC: 0.22157 (Simulation time: 0 hr 24 min 42 sec) 
Heartbeat CPU  0 instructions:  498000000 cycles: 1863067385 heartbeat IPC: 0.22418 cumulative IPC: 0.22158 (Simulation time: 0 hr 24 min 45 sec) 
Heartbeat CPU  0 instructions:  499000000 cycles: 1867650879 heartbeat IPC: 0.21817 cumulative IPC: 0.22157 (Simulation time: 0 hr 24 min 49 sec) 
Heartbeat CPU  0 instructions:  500000000 cycles: 1870463443 heartbeat IPC: 0.35555 cumulative IPC: 0.22178 (Simulation time: 0 hr 24 min 51 sec) 
Heartbeat CPU  0 instructions:  501000000 cycles: 1874598027 heartbeat IPC: 0.24186 cumulative IPC: 0.22183 (Simulation time: 0 hr 24 min 55 sec) 
Heartbeat CPU  0 instructions:  502000000 cycles: 1876649042 heartbeat IPC: 0.48756 cumulative IPC: 0.22213 (Simulation time: 0 hr 24 min 57 sec) 
Heartbeat CPU  0 instructions:  503000003 cycles: 1887247078 heartbeat IPC: 0.09436 cumulative IPC: 0.22138 (Simulation time: 0 hr 25 min 4 sec) 
Heartbeat CPU  0 instructions:  504000000 cycles: 1893148498 heartbeat IPC: 0.16945 cumulative IPC: 0.22122 (Simulation time: 0 hr 25 min 8 sec) 
Heartbeat CPU  0 instructions:  505000000 cycles: 1894870895 heartbeat IPC: 0.58059 cumulative IPC: 0.22155 (Simulation time: 0 hr 25 min 9 sec) 
Heartbeat CPU  0 instructions:  506000000 cycles: 1897719363 heartbeat IPC: 0.35107 cumulative IPC: 0.22176 (Simulation time: 0 hr 25 min 11 sec) 
Heartbeat CPU  0 instructions:  507000002 cycles: 1903213774 heartbeat IPC: 0.18200 cumulative IPC: 0.22164 (Simulation time: 0 hr 25 min 15 sec) 
Heartbeat CPU  0 instructions:  508000000 cycles: 1907956822 heartbeat IPC: 0.21083 cumulative IPC: 0.22161 (Simulation time: 0 hr 25 min 18 sec) 
Heartbeat CPU  0 instructions:  509000001 cycles: 1912336695 heartbeat IPC: 0.22832 cumulative IPC: 0.22163 (Simulation time: 0 hr 25 min 21 sec) 
Heartbeat CPU  0 instructions:  510000003 cycles: 1915162225 heartbeat IPC: 0.35392 cumulative IPC: 0.22183 (Simulation time: 0 hr 25 min 24 sec) 
Heartbeat CPU  0 instructions:  511000000 cycles: 1919261610 heartbeat IPC: 0.24394 cumulative IPC: 0.22188 (Simulation time: 0 hr 25 min 27 sec) 
Heartbeat CPU  0 instructions:  512000000 cycles: 1921572568 heartbeat IPC: 0.43272 cumulative IPC: 0.22214 (Simulation time: 0 hr 25 min 30 sec) 
Heartbeat CPU  0 instructions:  513000001 cycles: 1932254907 heartbeat IPC: 0.09361 cumulative IPC: 0.22140 (Simulation time: 0 hr 25 min 38 sec) 
Heartbeat CPU  0 instructions:  514000000 cycles: 1937659807 heartbeat IPC: 0.18502 cumulative IPC: 0.22130 (Simulation time: 0 hr 25 min 41 sec) 
Heartbeat CPU  0 instructions:  515000001 cycles: 1939373887 heartbeat IPC: 0.58340 cumulative IPC: 0.22163 (Simulation time: 0 hr 25 min 42 sec) 
Heartbeat CPU  0 instructions:  516000000 cycles: 1942388360 heartbeat IPC: 0.33173 cumulative IPC: 0.22181 (Simulation time: 0 hr 25 min 45 sec) 
Heartbeat CPU  0 instructions:  517000001 cycles: 1947710593 heartbeat IPC: 0.18789 cumulative IPC: 0.22171 (Simulation time: 0 hr 25 min 48 sec) 
Heartbeat CPU  0 instructions:  518000000 cycles: 1952705985 heartbeat IPC: 0.20018 cumulative IPC: 0.22165 (Simulation time: 0 hr 25 min 52 sec) 
Heartbeat CPU  0 instructions:  519000002 cycles: 1957011823 heartbeat IPC: 0.23224 cumulative IPC: 0.22168 (Simulation time: 0 hr 25 min 55 sec) 
Heartbeat CPU  0 instructions:  520000000 cycles: 1959795664 heartbeat IPC: 0.35922 cumulative IPC: 0.22188 (Simulation time: 0 hr 25 min 58 sec) 
Heartbeat CPU  0 instructions:  521000000 cycles: 1963842970 heartbeat IPC: 0.24708 cumulative IPC: 0.22193 (Simulation time: 0 hr 26 min 1 sec) 
Heartbeat CPU  0 instructions:  522000001 cycles: 1966427941 heartbeat IPC: 0.38685 cumulative IPC: 0.22216 (Simulation time: 0 hr 26 min 4 sec) 
Heartbeat CPU  0 instructions:  523000000 cycles: 1977194112 heartbeat IPC: 0.09288 cumulative IPC: 0.22143 (Simulation time: 0 hr 26 min 11 sec) 
Heartbeat CPU  0 instructions:  524000000 cycles: 1982231643 heartbeat IPC: 0.19851 cumulative IPC: 0.22137 (Simulation time: 0 hr 26 min 14 sec) 
Heartbeat CPU  0 instructions:  525000003 cycles: 1983940795 heartbeat IPC: 0.58509 cumulative IPC: 0.22169 (Simulation time: 0 hr 26 min 15 sec) 
Heartbeat CPU  0 instructions:  526000002 cycles: 1987130349 heartbeat IPC: 0.31352 cumulative IPC: 0.22185 (Simulation time: 0 hr 26 min 18 sec) 
Heartbeat CPU  0 instructions:  527000001 cycles: 1992253619 heartbeat IPC: 0.19519 cumulative IPC: 0.22177 (Simulation time: 0 hr 26 min 21 sec) 
Heartbeat CPU  0 instructions:  528000000 cycles: 1997495076 heartbeat IPC: 0.19079 cumulative IPC: 0.22169 (Simulation time: 0 hr 26 min 24 sec) 
Heartbeat CPU  0 instructions:  529000001 cycles: 2001688696 heartbeat IPC: 0.23846 cumulative IPC: 0.22173 (Simulation time: 0 hr 26 min 28 sec) 
Heartbeat CPU  0 instructions:  530000001 cycles: 2004545922 heartbeat IPC: 0.34999 cumulative IPC: 0.22192 (Simulation time: 0 hr 26 min 31 sec) 
Heartbeat CPU  0 instructions:  531000002 cycles: 2008446792 heartbeat IPC: 0.25635 cumulative IPC: 0.22199 (Simulation time: 0 hr 26 min 34 sec) 
Heartbeat CPU  0 instructions:  532000000 cycles: 2011218050 heartbeat IPC: 0.36085 cumulative IPC: 0.22218 (Simulation time: 0 hr 26 min 37 sec) 
Heartbeat CPU  0 instructions:  533000003 cycles: 2022100740 heartbeat IPC: 0.09189 cumulative IPC: 0.22146 (Simulation time: 0 hr 26 min 44 sec) 
Heartbeat CPU  0 instructions:  534000001 cycles: 2026789548 heartbeat IPC: 0.21327 cumulative IPC: 0.22144 (Simulation time: 0 hr 26 min 47 sec) 
Heartbeat CPU  0 instructions:  535000003 cycles: 2028488335 heartbeat IPC: 0.58866 cumulative IPC: 0.22176 (Simulation time: 0 hr 26 min 48 sec) 
Heartbeat CPU  0 instructions:  536000000 cycles: 2031857673 heartbeat IPC: 0.29679 cumulative IPC: 0.22189 (Simulation time: 0 hr 26 min 50 sec) 
Heartbeat CPU  0 instructions:  537000001 cycles: 2036784404 heartbeat IPC: 0.20297 cumulative IPC: 0.22184 (Simulation time: 0 hr 26 min 54 sec) 
Heartbeat CPU  0 instructions:  538000002 cycles: 2042256323 heartbeat IPC: 0.18275 cumulative IPC: 0.22173 (Simulation time: 0 hr 26 min 57 sec) 
Heartbeat CPU  0 instructions:  539000000 cycles: 2046252573 heartbeat IPC: 0.25023 cumulative IPC: 0.22179 (Simulation time: 0 hr 27 min 1 sec) 
Heartbeat CPU  0 instructions:  540000000 cycles: 2049284974 heartbeat IPC: 0.32977 cumulative IPC: 0.22195 (Simulation time: 0 hr 27 min 4 sec) 
Heartbeat CPU  0 instructions:  541000002 cycles: 2053129439 heartbeat IPC: 0.26011 cumulative IPC: 0.22203 (Simulation time: 0 hr 27 min 7 sec) 
Heartbeat CPU  0 instructions:  542000001 cycles: 2056009053 heartbeat IPC: 0.34727 cumulative IPC: 0.22221 (Simulation time: 0 hr 27 min 10 sec) 
Heartbeat CPU  0 instructions:  543000003 cycles: 2067028120 heartbeat IPC: 0.09075 cumulative IPC: 0.22148 (Simulation time: 0 hr 27 min 17 sec) 
Heartbeat CPU  0 instructions:  544000000 cycles: 2071440920 heartbeat IPC: 0.22661 cumulative IPC: 0.22149 (Simulation time: 0 hr 27 min 19 sec) 
Heartbeat CPU  0 instructions:  545000000 cycles: 2073128509 heartbeat IPC: 0.59256 cumulative IPC: 0.22181 (Simulation time: 0 hr 27 min 21 sec) 
Heartbeat CPU  0 instructions:  546000002 cycles: 2076655673 heartbeat IPC: 0.28351 cumulative IPC: 0.22192 (Simulation time: 0 hr 27 min 23 sec) 
Heartbeat CPU  0 instructions:  547000001 cycles: 2081372427 heartbeat IPC: 0.21201 cumulative IPC: 0.22189 (Simulation time: 0 hr 27 min 27 sec) 
Heartbeat CPU  0 instructions:  548000000 cycles: 2087012667 heartbeat IPC: 0.17730 cumulative IPC: 0.22177 (Simulation time: 0 hr 27 min 30 sec) 
Heartbeat CPU  0 instructions:  549000003 cycles: 2090931018 heartbeat IPC: 0.25521 cumulative IPC: 0.22183 (Simulation time: 0 hr 27 min 34 sec) 
Heartbeat CPU  0 instructions:  550000002 cycles: 2092701062 heartbeat IPC: 0.56496 cumulative IPC: 0.22213 (Simulation time: 0 hr 27 min 36 sec) 
Heartbeat CPU  0 instructions:  551000001 cycles: 2105901449 heartbeat IPC: 0.07576 cumulative IPC: 0.22118 (Simulation time: 0 hr 27 min 43 sec) 
Heartbeat CPU  0 instructions:  552000000 cycles: 2115612366 heartbeat IPC: 0.10298 cumulative IPC: 0.22062 (Simulation time: 0 hr 27 min 49 sec) 
Heartbeat CPU  0 instructions:  553000000 cycles: 2123571701 heartbeat IPC: 0.12564 cumulative IPC: 0.22026 (Simulation time: 0 hr 27 min 55 sec) 
Heartbeat CPU  0 instructions:  554000003 cycles: 2132178564 heartbeat IPC: 0.11619 cumulative IPC: 0.21982 (Simulation time: 0 hr 28 min 0 sec) 
Heartbeat CPU  0 instructions:  555000002 cycles: 2138200512 heartbeat IPC: 0.16606 cumulative IPC: 0.21967 (Simulation time: 0 hr 28 min 5 sec) 
Heartbeat CPU  0 instructions:  556000000 cycles: 2143071881 heartbeat IPC: 0.20528 cumulative IPC: 0.21963 (Simulation time: 0 hr 28 min 9 sec) 
Heartbeat CPU  0 instructions:  557000000 cycles: 2148945978 heartbeat IPC: 0.17024 cumulative IPC: 0.21949 (Simulation time: 0 hr 28 min 13 sec) 
Heartbeat CPU  0 instructions:  558000001 cycles: 2152552777 heartbeat IPC: 0.27725 cumulative IPC: 0.21959 (Simulation time: 0 hr 28 min 15 sec) 
Heartbeat CPU  0 instructions:  559000000 cycles: 2156205754 heartbeat IPC: 0.27375 cumulative IPC: 0.21969 (Simulation time: 0 hr 28 min 18 sec) 
Heartbeat CPU  0 instructions:  560000000 cycles: 2158948706 heartbeat IPC: 0.36457 cumulative IPC: 0.21988 (Simulation time: 0 hr 28 min 21 sec) 
Heartbeat CPU  0 instructions:  561000001 cycles: 2161623112 heartbeat IPC: 0.37392 cumulative IPC: 0.22007 (Simulation time: 0 hr 28 min 23 sec) 
Heartbeat CPU  0 instructions:  562000000 cycles: 2163796761 heartbeat IPC: 0.46006 cumulative IPC: 0.22032 (Simulation time: 0 hr 28 min 26 sec) 
Heartbeat CPU  0 instructions:  563000002 cycles: 2166498756 heartbeat IPC: 0.37010 cumulative IPC: 0.22052 (Simulation time: 0 hr 28 min 29 sec) 
Heartbeat CPU  0 instructions:  564000000 cycles: 2168290228 heartbeat IPC: 0.55820 cumulative IPC: 0.22080 (Simulation time: 0 hr 28 min 31 sec) 
Heartbeat CPU  0 instructions:  565000000 cycles: 2170557211 heartbeat IPC: 0.44111 cumulative IPC: 0.22104 (Simulation time: 0 hr 28 min 34 sec) 
Heartbeat CPU  0 instructions:  566000001 cycles: 2174462085 heartbeat IPC: 0.25609 cumulative IPC: 0.22111 (Simulation time: 0 hr 28 min 37 sec) 
Heartbeat CPU  0 instructions:  567000000 cycles: 2178196695 heartbeat IPC: 0.26777 cumulative IPC: 0.22119 (Simulation time: 0 hr 28 min 41 sec) 
Heartbeat CPU  0 instructions:  568000000 cycles: 2180841544 heartbeat IPC: 0.37809 cumulative IPC: 0.22139 (Simulation time: 0 hr 28 min 44 sec) 
Heartbeat CPU  0 instructions:  569000000 cycles: 2184612774 heartbeat IPC: 0.26517 cumulative IPC: 0.22146 (Simulation time: 0 hr 28 min 47 sec) 
Heartbeat CPU  0 instructions:  570000000 cycles: 2186835674 heartbeat IPC: 0.44986 cumulative IPC: 0.22170 (Simulation time: 0 hr 28 min 49 sec) 
Heartbeat CPU  0 instructions:  571000000 cycles: 2194857178 heartbeat IPC: 0.12466 cumulative IPC: 0.22134 (Simulation time: 0 hr 28 min 55 sec) 
Heartbeat CPU  0 instructions:  572000000 cycles: 2203718349 heartbeat IPC: 0.11285 cumulative IPC: 0.22089 (Simulation time: 0 hr 29 min 0 sec) 
Heartbeat CPU  0 instructions:  573000002 cycles: 2205476841 heartbeat IPC: 0.56867 cumulative IPC: 0.22117 (Simulation time: 0 hr 29 min 2 sec) 
Heartbeat CPU  0 instructions:  574000002 cycles: 2206965850 heartbeat IPC: 0.67159 cumulative IPC: 0.22149 (Simulation time: 0 hr 29 min 3 sec) 
Heartbeat CPU  0 instructions:  575000000 cycles: 2212636102 heartbeat IPC: 0.17636 cumulative IPC: 0.22137 (Simulation time: 0 hr 29 min 7 sec) 
Heartbeat CPU  0 instructions:  576000000 cycles: 2216482816 heartbeat IPC: 0.25996 cumulative IPC: 0.22144 (Simulation time: 0 hr 29 min 10 sec) 
Heartbeat CPU  0 instructions:  577000000 cycles: 2221498161 heartbeat IPC: 0.19939 cumulative IPC: 0.22138 (Simulation time: 0 hr 29 min 13 sec) 
Heartbeat CPU  0 instructions:  578000002 cycles: 2225355386 heartbeat IPC: 0.25925 cumulative IPC: 0.22145 (Simulation time: 0 hr 29 min 16 sec) 
Heartbeat CPU  0 instructions:  579000002 cycles: 2232352665 heartbeat IPC: 0.14291 cumulative IPC: 0.22120 (Simulation time: 0 hr 29 min 22 sec) 
Heartbeat CPU  0 instructions:  580000000 cycles: 2235205114 heartbeat IPC: 0.35058 cumulative IPC: 0.22137 (Simulation time: 0 hr 29 min 24 sec) 
Heartbeat CPU  0 instructions:  581000000 cycles: 2239676074 heartbeat IPC: 0.22367 cumulative IPC: 0.22137 (Simulation time: 0 hr 29 min 28 sec) 
Heartbeat CPU  0 instructions:  582000002 cycles: 2251876819 heartbeat IPC: 0.08196 cumulative IPC: 0.22060 (Simulation time: 0 hr 29 min 36 sec) 
Heartbeat CPU  0 instructions:  583000000 cycles: 2253982041 heartbeat IPC: 0.47501 cumulative IPC: 0.22084 (Simulation time: 0 hr 29 min 37 sec) 
Heartbeat CPU  0 instructions:  584000000 cycles: 2255640416 heartbeat IPC: 0.60300 cumulative IPC: 0.22113 (Simulation time: 0 hr 29 min 39 sec) 
Heartbeat CPU  0 instructions:  585000000 cycles: 2259784427 heartbeat IPC: 0.24131 cumulative IPC: 0.22117 (Simulation time: 0 hr 29 min 41 sec) 
Heartbeat CPU  0 instructions:  586000000 cycles: 2264009224 heartbeat IPC: 0.23670 cumulative IPC: 0.22120 (Simulation time: 0 hr 29 min 44 sec) 
Heartbeat CPU  0 instructions:  587000002 cycles: 2269840320 heartbeat IPC: 0.17149 cumulative IPC: 0.22107 (Simulation time: 0 hr 29 min 48 sec) 
Heartbeat CPU  0 instructions:  588000000 cycles: 2273615362 heartbeat IPC: 0.26490 cumulative IPC: 0.22114 (Simulation time: 0 hr 29 min 51 sec) 
Heartbeat CPU  0 instructions:  589000001 cycles: 2276723533 heartbeat IPC: 0.32173 cumulative IPC: 0.22128 (Simulation time: 0 hr 29 min 54 sec) 
Heartbeat CPU  0 instructions:  590000000 cycles: 2280190814 heartbeat IPC: 0.28841 cumulative IPC: 0.22139 (Simulation time: 0 hr 29 min 57 sec) 
Heartbeat CPU  0 instructions:  591000001 cycles: 2283535199 heartbeat IPC: 0.29901 cumulative IPC: 0.22150 (Simulation time: 0 hr 30 min 0 sec) 
Heartbeat CPU  0 instructions:  592000000 cycles: 2294763165 heartbeat IPC: 0.08906 cumulative IPC: 0.22084 (Simulation time: 0 hr 30 min 8 sec) 
Heartbeat CPU  0 instructions:  593000003 cycles: 2298521046 heartbeat IPC: 0.26611 cumulative IPC: 0.22091 (Simulation time: 0 hr 30 min 10 sec) 
Heartbeat CPU  0 instructions:  594000003 cycles: 2300198769 heartbeat IPC: 0.59605 cumulative IPC: 0.22120 (Simulation time: 0 hr 30 min 11 sec) 
Heartbeat CPU  0 instructions:  595000003 cycles: 2303935011 heartbeat IPC: 0.26765 cumulative IPC: 0.22127 (Simulation time: 0 hr 30 min 14 sec) 
Heartbeat CPU  0 instructions:  596000000 cycles: 2308417788 heartbeat IPC: 0.22308 cumulative IPC: 0.22128 (Simulation time: 0 hr 30 min 17 sec) 
Heartbeat CPU  0 instructions:  597000002 cycles: 2314140483 heartbeat IPC: 0.17474 cumulative IPC: 0.22116 (Simulation time: 0 hr 30 min 20 sec) 
Heartbeat CPU  0 instructions:  598000001 cycles: 2318050995 heartbeat IPC: 0.25572 cumulative IPC: 0.22122 (Simulation time: 0 hr 30 min 24 sec) 
Heartbeat CPU  0 instructions:  599000003 cycles: 2321409671 heartbeat IPC: 0.29774 cumulative IPC: 0.22133 (Simulation time: 0 hr 30 min 27 sec) 
Heartbeat CPU  0 instructions:  600000000 cycles: 2324769428 heartbeat IPC: 0.29764 cumulative IPC: 0.22145 (Simulation time: 0 hr 30 min 30 sec) 
Finished CPU 0 instructions: 500000000 cycles: 2257892003 cumulative IPC: 0.22145 (Simulation time: 0 hr 30 min 30 sec) 

ChampSim completed all CPUs

[ROI Statistics]
Core_0_instructions 500000000
Core_0_cycles 2257892003
Core_0_IPC 0.22145

Core_0_branch_prediction_accuracy 95.09196
Core_0_branch_MPKI 8.72608
Core_0_average_ROB_occupancy_at_mispredict 82.51648

Core_0_L1D_total_access 103321127
Core_0_L1D_total_hit 76791313
Core_0_L1D_total_miss 26529814
Core_0_L1D_loads 77610454
Core_0_L1D_load_hit 55020125
Core_0_L1D_load_miss 22590329
Core_0_L1D_RFOs 25710673
Core_0_L1D_RFO_hit 21771188
Core_0_L1D_RFO_miss 3939485
Core_0_L1D_prefetches 0
Core_0_L1D_prefetch_hit 0
Core_0_L1D_prefetch_miss 0
Core_0_L1D_writebacks 0
Core_0_L1D_writeback_hit 0
Core_0_L1D_writeback_miss 0
Core_0_L1D_prefetch_requested 0
Core_0_L1D_prefetch_dropped 0
Core_0_L1D_prefetch_issued 0
Core_0_L1D_prefetch_filled 0
Core_0_L1D_prefetch_useful 0
Core_0_L1D_prefetch_useless 0
Core_0_L1D_prefetch_late 0
Core_0_L1D_average_miss_latency 228.92680

Core_0_L1D_rq_access 150246662
Core_0_L1D_rq_forward 0
Core_0_L1D_rq_merged 65992757
Core_0_L1D_rq_to_cache 84253623
Core_0_L1D_rq_full 0

Core_0_L1D_wq_access 35310153
Core_0_L1D_wq_forward 282
Core_0_L1D_wq_merged 33643
Core_0_L1D_wq_to_cache 35276510
Core_0_L1D_wq_full 40005303

Core_0_L1D_pq_access 0
Core_0_L1D_pq_forward 0
Core_0_L1D_pq_merged 0
Core_0_L1D_pq_to_cache 0
Core_0_L1D_pq_full 0

Core_0_L1D_acc_epochs 2220825
Core_0_L1D_acc_level_0 2220825
Core_0_L1D_acc_level_1 0
Core_0_L1D_acc_level_2 0
Core_0_L1D_acc_level_3 0
Core_0_L1D_acc_level_4 0
Core_0_L1D_acc_level_5 0
Core_0_L1D_acc_level_6 0
Core_0_L1D_acc_level_7 0
Core_0_L1D_acc_level_8 0
Core_0_L1D_acc_level_9 0

Core_0_L1I_total_access 104636667
Core_0_L1I_total_hit 104633469
Core_0_L1I_total_miss 3198
Core_0_L1I_loads 104636667
Core_0_L1I_load_hit 104633469
Core_0_L1I_load_miss 3198
Core_0_L1I_RFOs 0
Core_0_L1I_RFO_hit 0
Core_0_L1I_RFO_miss 0
Core_0_L1I_prefetches 0
Core_0_L1I_prefetch_hit 0
Core_0_L1I_prefetch_miss 0
Core_0_L1I_writebacks 0
Core_0_L1I_writeback_hit 0
Core_0_L1I_writeback_miss 0
Core_0_L1I_prefetch_requested 0
Core_0_L1I_prefetch_dropped 0
Core_0_L1I_prefetch_issued 0
Core_0_L1I_prefetch_filled 0
Core_0_L1I_prefetch_useful 0
Core_0_L1I_prefetch_useless 0
Core_0_L1I_prefetch_late 0
Core_0_L1I_average_miss_latency 379.65572

Core_0_L1I_rq_access 500000000
Core_0_L1I_rq_forward 0
Core_0_L1I_rq_merged 395360191
Core_0_L1I_rq_to_cache 104639809
Core_0_L1I_rq_full 0

Core_0_L1I_wq_access 0
Core_0_L1I_wq_forward 0
Core_0_L1I_wq_merged 0
Core_0_L1I_wq_to_cache 0
Core_0_L1I_wq_full 0

Core_0_L1I_pq_access 0
Core_0_L1I_pq_forward 0
Core_0_L1I_pq_merged 0
Core_0_L1I_pq_to_cache 0
Core_0_L1I_pq_full 0

Core_0_L1I_acc_epochs 2220825
Core_0_L1I_acc_level_0 2220825
Core_0_L1I_acc_level_1 0
Core_0_L1I_acc_level_2 0
Core_0_L1I_acc_level_3 0
Core_0_L1I_acc_level_4 0
Core_0_L1I_acc_level_5 0
Core_0_L1I_acc_level_6 0
Core_0_L1I_acc_level_7 0
Core_0_L1I_acc_level_8 0
Core_0_L1I_acc_level_9 0

Core_0_L2C_total_access 48197152
Core_0_L2C_total_hit 25041695
Core_0_L2C_total_miss 23155457
Core_0_L2C_loads 22591010
Core_0_L2C_load_hit 8470270
Core_0_L2C_load_miss 14120740
Core_0_L2C_RFOs 3939121
Core_0_L2C_RFO_hit 460347
Core_0_L2C_RFO_miss 3478774
Core_0_L2C_prefetches 10724104
Core_0_L2C_prefetch_hit 5169876
Core_0_L2C_prefetch_miss 5554228
Core_0_L2C_writebacks 10942917
Core_0_L2C_writeback_hit 10941202
Core_0_L2C_writeback_miss 1715
Core_0_L2C_prefetch_requested 52009489
Core_0_L2C_prefetch_dropped 0
Core_0_L2C_prefetch_issued 52009489
Core_0_L2C_prefetch_filled 6763689
Core_0_L2C_prefetch_useful 5116855
Core_0_L2C_prefetch_useless 1646735
Core_0_L2C_prefetch_late 272581
Core_0_L2C_average_miss_latency 475.26671

Core_0_L2C_rq_access 26533012
Core_0_L2C_rq_forward 0
Core_0_L2C_rq_merged 0
Core_0_L2C_rq_to_cache 26530131
Core_0_L2C_rq_full 0

Core_0_L2C_wq_access 10942917
Core_0_L2C_wq_forward 2976
Core_0_L2C_wq_merged 0
Core_0_L2C_wq_to_cache 10942917
Core_0_L2C_wq_full 0

Core_0_L2C_pq_access 52009489
Core_0_L2C_pq_forward 0
Core_0_L2C_pq_merged 128
Core_0_L2C_pq_to_cache 52009266
Core_0_L2C_pq_full 0

Core_0_L2C_acc_epochs 2220825
Core_0_L2C_acc_level_0 1287038
Core_0_L2C_acc_level_1 189836
Core_0_L2C_acc_level_2 142636
Core_0_L2C_acc_level_3 86196
Core_0_L2C_acc_level_4 55125
Core_0_L2C_acc_level_5 99524
Core_0_L2C_acc_level_6 47217
Core_0_L2C_acc_level_7 42330
Core_0_L2C_acc_level_8 31772
Core_0_L2C_acc_level_9 239151

Core_0_LLC_total_access 63834683
Core_0_LLC_total_hit 34959759
Core_0_LLC_total_miss 28874924
Core_0_LLC_loads 13853504
Core_0_LLC_load_hit 10345111
Core_0_LLC_load_miss 3508393
Core_0_LLC_RFOs 3478653
Core_0_LLC_RFO_hit 757841
Core_0_LLC_RFO_miss 2720812
Core_0_LLC_prefetches 38405002
Core_0_LLC_prefetch_hit 18029005
Core_0_LLC_prefetch_miss 20375997
Core_0_LLC_writebacks 8097524
Core_0_LLC_writeback_hit 5827802
Core_0_LLC_writeback_miss 2269722
Core_0_LLC_prefetch_requested 0
Core_0_LLC_prefetch_dropped 0
Core_0_LLC_prefetch_issued 0
Core_0_LLC_prefetch_filled 24247218
Core_0_LLC_prefetch_useful 7665485
Core_0_LLC_prefetch_useless 16571356
Core_0_LLC_prefetch_late 463236
Core_0_LLC_average_miss_latency 1286.32967

Core_0_LLC_rq_access 17332295
Core_0_LLC_rq_forward 0
Core_0_LLC_rq_merged 0
Core_0_LLC_rq_to_cache 17332157
Core_0_LLC_rq_full 0

Core_0_LLC_wq_access 8097524
Core_0_LLC_wq_forward 551
Core_0_LLC_wq_merged 0
Core_0_LLC_wq_to_cache 8097524
Core_0_LLC_wq_full 0

Core_0_LLC_pq_access 45424110
Core_0_LLC_pq_forward 0
Core_0_LLC_pq_merged 6
Core_0_LLC_pq_to_cache 45423684
Core_0_LLC_pq_full 0

Core_0_LLC_acc_epochs 2270283
Core_0_LLC_acc_level_0 1104657
Core_0_LLC_acc_level_1 284332
Core_0_LLC_acc_level_2 198370
Core_0_LLC_acc_level_3 143965
Core_0_LLC_acc_level_4 104444
Core_0_LLC_acc_level_5 86532
Core_0_LLC_acc_level_6 59243
Core_0_LLC_acc_level_7 45539
Core_0_LLC_acc_level_8 34672
Core_0_LLC_acc_level_9 208529

Core_0_major_page_fault 0
Core_0_minor_page_fault 12989

[Bingo] PHT Access: 3113031
[Bingo] PHT Hit PC+Addr: 212060
[Bingo] PHT Hit PC+Offs: 2697890
[Bingo] PHT Miss: 203081
[Bingo] Prefetch PC+Addr: 0
[Bingo] Prefetch PC+Offs: 0
[Bingo] Useful PC+Addr: 0
[Bingo] Useful PC+Offs: 0
[Bingo] Useless PC+Addr: 0
[Bingo] Useless PC+Offs: 0
[Bingo] L1 Prefetch per Region: 0.00000
[Bingo] L2 Prefetch per Region: 3.84857
[Bingo] L3 Prefetch per Region: 17.39699
[Bingo] No Prefetch per Region: 10.75443
[Bingo] Number of Voters Mean: 11.00667
[Bingo] Number of Voters SD: 5.26297

Channel_0_RQ_row_buffer_hit 15926778
Channel_0_RQ_row_buffer_miss 10668298
Channel_0_WQ_row_buffer_hit 1047076
Channel_0_WQ_row_buffer_miss 4328914
Channel_0_WQ_full 7879
Channel_0_dbus_congested 29846756

avg_congested_cycle 50

DRAM_bw_pochs 9081131
DRAM_bw_level_0 4165580
DRAM_bw_level_1 821216
DRAM_bw_level_2 574523
DRAM_bw_level_3 3519812
