*************************************************
   ChampSim Multicore Out-of-Order Simulator
   Last compiled: Dec 11 2024 17:59:53
*************************************************
parsing config file: /home/functionmain/桌面/Pythia/config/spp_dev2.ini

trace_0 /home/functionmain/桌面/Pythia/traces/450.soplex-247B.champsimtrace.xz
adding L2C_PREFETCHER: SPP_dev2
Initialize SIGNATURE TABLE
ST_SET: 1
ST_WAY: 256
ST_TAG_BIT: 16
ST_TAG_MASK: ffff

Initialize PATTERN TABLE
PT_SET: 512
PT_WAY: 4
SIG_DELTA_BIT: 7
C_SIG_BIT: 4
C_DELTA_BIT: 4

Initialize PREFETCH FILTER
FILTER_SET: 1024
fill_threshold: 90
pf_threshold: 40

Initialize SHIP state
warmup_instructions 100000000
simulation_instructions 500000000
champsim_seed 223
measure_ipc 0
measure_ipc_epoch 1000
measure_dram_bw 1
measure_dram_bw_epoch 256
measure_cache_acc 1
measure_cache_acc_epoch 1024
l1d_perfect 0
l2c_perfect 0
llc_perfect 0
l1d_semi_perfect 0
l2c_semi_perfect 0
llc_semi_perfect 0
semi_perfect_cache_page_buffer_size 64

num_cpus 1
cpu_freq 4000
dram_io_freq 2400
page_size 4096
block_size 64
max_read_per_cycle 8
max_fill_per_cycle 1
dram_channels 1
log2_dram_channels 0
dram_ranks 1
dram_banks 8
dram_rows 65536
dram_columns 128
dram_row_size 8
dram_size 4096
dram_pages 1048576

fetch_width 6
decode_width 6
exec_width 4
lq_width 2
sq_width 2
retire_width 4
scheduler_size 128
branch_mispredict_penalty 20
rob_size 256
lq_size 72
sq_size 56
num_instr_destinations_sparc 4
num_instr_destinations 2
num_instr_sources 4

itlb_set 16
itlb_way 8
itlb_rq_size 16
itlb_wq_size 16
itlb_pq_size 0
itlb_mshr_size 8
itlb_latency 1

dtlb_set 16
dtlb_way 4
dtlb_rq_size 16
dtlb_wq_size 16
dtlb_pq_size 0
dtlb_mshr_size 8
dtlb_latency 1

stlb_set 128
stlb_way 12
stlb_rq_size 32
stlb_wq_size 32
stlb_pq_size 0
stlb_mshr_size 16
stlb_latency 8

l1i_size 32
l1i_set 64
l1i_way 8
l1i_rq_size 64
l1i_wq_size 64
l1i_pq_size 8
l1i_mshr_size 8
l1i_latency 1

l1d_size 32
l1d_set 64
l1d_way 8
l1d_rq_size 64
l1d_wq_size 64
l1d_pq_size 8
l1d_mshr_size 16
l1d_latency 4

l2c_size 256
l2c_set 512
l2c_way 8
l2c_rq_size 32
l2c_wq_size 32
l2c_pq_size 32
l2c_mshr_size 32
l2c_latency 10

llc_size 2048
llc_set 2048
llc_way 16
llc_rq_size 32
llc_wq_size 32
llc_pq_size 32
llc_mshr_size 64
llc_latency 20

dram_channel_width 8
dram_wq_size 64
dram_rq_size 64
tRP 15
tRCD 15
tCAS 12.5
dram_dbus_turn_around_time 30
dram_write_high_wm 56
dram_write_low_wm 48
min_dram_writes_per_switch 16
dram_mtps 2400
dram_dbus_return_time 13


Heartbeat CPU  0 instructions:    1000002 cycles:     760685 heartbeat IPC: 1.31461 cumulative IPC: 1.31461 (Simulation time: 0 hr 0 min 1 sec) 
Heartbeat CPU  0 instructions:    2000001 cycles:    1404177 heartbeat IPC: 1.55402 cumulative IPC: 1.42432 (Simulation time: 0 hr 0 min 3 sec) 
Heartbeat CPU  0 instructions:    3000001 cycles:    2129371 heartbeat IPC: 1.37894 cumulative IPC: 1.40887 (Simulation time: 0 hr 0 min 5 sec) 
Heartbeat CPU  0 instructions:    4000000 cycles:    2670832 heartbeat IPC: 1.84685 cumulative IPC: 1.49766 (Simulation time: 0 hr 0 min 6 sec) 
Heartbeat CPU  0 instructions:    5000000 cycles:    3577116 heartbeat IPC: 1.10341 cumulative IPC: 1.39777 (Simulation time: 0 hr 0 min 8 sec) 
Heartbeat CPU  0 instructions:    6000001 cycles:    4469636 heartbeat IPC: 1.12042 cumulative IPC: 1.34239 (Simulation time: 0 hr 0 min 10 sec) 
Heartbeat CPU  0 instructions:    7000000 cycles:    5268988 heartbeat IPC: 1.25101 cumulative IPC: 1.32853 (Simulation time: 0 hr 0 min 11 sec) 
Heartbeat CPU  0 instructions:    8000000 cycles:    5961699 heartbeat IPC: 1.44360 cumulative IPC: 1.34190 (Simulation time: 0 hr 0 min 13 sec) 
Heartbeat CPU  0 instructions:    9000001 cycles:    6578298 heartbeat IPC: 1.62180 cumulative IPC: 1.36814 (Simulation time: 0 hr 0 min 14 sec) 
Heartbeat CPU  0 instructions:   10000000 cycles:    7123417 heartbeat IPC: 1.83446 cumulative IPC: 1.40382 (Simulation time: 0 hr 0 min 16 sec) 
Heartbeat CPU  0 instructions:   11000001 cycles:    7717984 heartbeat IPC: 1.68190 cumulative IPC: 1.42524 (Simulation time: 0 hr 0 min 17 sec) 
Heartbeat CPU  0 instructions:   12000000 cycles:    8398035 heartbeat IPC: 1.47048 cumulative IPC: 1.42891 (Simulation time: 0 hr 0 min 19 sec) 
Heartbeat CPU  0 instructions:   13000000 cycles:    9278934 heartbeat IPC: 1.13520 cumulative IPC: 1.40102 (Simulation time: 0 hr 0 min 20 sec) 
Heartbeat CPU  0 instructions:   14000002 cycles:   10027289 heartbeat IPC: 1.33627 cumulative IPC: 1.39619 (Simulation time: 0 hr 0 min 21 sec) 
Heartbeat CPU  0 instructions:   15000000 cycles:   10632383 heartbeat IPC: 1.65263 cumulative IPC: 1.41078 (Simulation time: 0 hr 0 min 22 sec) 
Heartbeat CPU  0 instructions:   16000000 cycles:   11161880 heartbeat IPC: 1.88858 cumulative IPC: 1.43345 (Simulation time: 0 hr 0 min 23 sec) 
Heartbeat CPU  0 instructions:   17000000 cycles:   11974073 heartbeat IPC: 1.23123 cumulative IPC: 1.41973 (Simulation time: 0 hr 0 min 25 sec) 
Heartbeat CPU  0 instructions:   18000001 cycles:   12583060 heartbeat IPC: 1.64207 cumulative IPC: 1.43049 (Simulation time: 0 hr 0 min 27 sec) 
Heartbeat CPU  0 instructions:   19000001 cycles:   13121688 heartbeat IPC: 1.85657 cumulative IPC: 1.44798 (Simulation time: 0 hr 0 min 28 sec) 
Heartbeat CPU  0 instructions:   20000000 cycles:   13720660 heartbeat IPC: 1.66953 cumulative IPC: 1.45766 (Simulation time: 0 hr 0 min 30 sec) 
Heartbeat CPU  0 instructions:   21000001 cycles:   14382014 heartbeat IPC: 1.51205 cumulative IPC: 1.46016 (Simulation time: 0 hr 0 min 31 sec) 
Heartbeat CPU  0 instructions:   22000003 cycles:   15260961 heartbeat IPC: 1.13773 cumulative IPC: 1.44159 (Simulation time: 0 hr 0 min 32 sec) 
Heartbeat CPU  0 instructions:   23000001 cycles:   16027836 heartbeat IPC: 1.30399 cumulative IPC: 1.43500 (Simulation time: 0 hr 0 min 33 sec) 
Heartbeat CPU  0 instructions:   24000000 cycles:   16629716 heartbeat IPC: 1.66146 cumulative IPC: 1.44320 (Simulation time: 0 hr 0 min 34 sec) 
Heartbeat CPU  0 instructions:   25000000 cycles:   17173480 heartbeat IPC: 1.83903 cumulative IPC: 1.45573 (Simulation time: 0 hr 0 min 36 sec) 
Heartbeat CPU  0 instructions:   26000001 cycles:   17973375 heartbeat IPC: 1.25017 cumulative IPC: 1.44658 (Simulation time: 0 hr 0 min 37 sec) 
Heartbeat CPU  0 instructions:   27000003 cycles:   18550738 heartbeat IPC: 1.73202 cumulative IPC: 1.45547 (Simulation time: 0 hr 0 min 39 sec) 
Heartbeat CPU  0 instructions:   28000000 cycles:   19107057 heartbeat IPC: 1.79752 cumulative IPC: 1.46543 (Simulation time: 0 hr 0 min 40 sec) 
Heartbeat CPU  0 instructions:   29000002 cycles:   19663490 heartbeat IPC: 1.79717 cumulative IPC: 1.47481 (Simulation time: 0 hr 0 min 42 sec) 
Heartbeat CPU  0 instructions:   30000001 cycles:   20254849 heartbeat IPC: 1.69102 cumulative IPC: 1.48113 (Simulation time: 0 hr 0 min 43 sec) 
Heartbeat CPU  0 instructions:   31000002 cycles:   21123978 heartbeat IPC: 1.15058 cumulative IPC: 1.46753 (Simulation time: 0 hr 0 min 44 sec) 
Heartbeat CPU  0 instructions:   32000000 cycles:   21944856 heartbeat IPC: 1.21821 cumulative IPC: 1.45820 (Simulation time: 0 hr 0 min 45 sec) 
Heartbeat CPU  0 instructions:   33000000 cycles:   22544474 heartbeat IPC: 1.66773 cumulative IPC: 1.46377 (Simulation time: 0 hr 0 min 47 sec) 
Heartbeat CPU  0 instructions:   34000000 cycles:   23164909 heartbeat IPC: 1.61177 cumulative IPC: 1.46774 (Simulation time: 0 hr 0 min 48 sec) 
Heartbeat CPU  0 instructions:   35000000 cycles:   23890194 heartbeat IPC: 1.37877 cumulative IPC: 1.46504 (Simulation time: 0 hr 0 min 49 sec) 
Heartbeat CPU  0 instructions:   36000000 cycles:   24498939 heartbeat IPC: 1.64272 cumulative IPC: 1.46945 (Simulation time: 0 hr 0 min 51 sec) 
Heartbeat CPU  0 instructions:   37000002 cycles:   25037972 heartbeat IPC: 1.85518 cumulative IPC: 1.47776 (Simulation time: 0 hr 0 min 53 sec) 
Heartbeat CPU  0 instructions:   38000002 cycles:   25604558 heartbeat IPC: 1.76496 cumulative IPC: 1.48411 (Simulation time: 0 hr 0 min 54 sec) 
Heartbeat CPU  0 instructions:   39000000 cycles:   26189035 heartbeat IPC: 1.71093 cumulative IPC: 1.48917 (Simulation time: 0 hr 0 min 56 sec) 
Heartbeat CPU  0 instructions:   40000000 cycles:   26966168 heartbeat IPC: 1.28678 cumulative IPC: 1.48334 (Simulation time: 0 hr 0 min 57 sec) 
Heartbeat CPU  0 instructions:   41000001 cycles:   27832313 heartbeat IPC: 1.15454 cumulative IPC: 1.47311 (Simulation time: 0 hr 0 min 58 sec) 
Heartbeat CPU  0 instructions:   42000001 cycles:   28483618 heartbeat IPC: 1.53538 cumulative IPC: 1.47453 (Simulation time: 0 hr 0 min 59 sec) 
Heartbeat CPU  0 instructions:   43000000 cycles:   29127309 heartbeat IPC: 1.55354 cumulative IPC: 1.47628 (Simulation time: 0 hr 1 min 0 sec) 
Heartbeat CPU  0 instructions:   44000000 cycles:   29753243 heartbeat IPC: 1.59761 cumulative IPC: 1.47883 (Simulation time: 0 hr 1 min 2 sec) 
Heartbeat CPU  0 instructions:   45000000 cycles:   30487191 heartbeat IPC: 1.36249 cumulative IPC: 1.47603 (Simulation time: 0 hr 1 min 3 sec) 
Heartbeat CPU  0 instructions:   46000001 cycles:   31026087 heartbeat IPC: 1.85565 cumulative IPC: 1.48262 (Simulation time: 0 hr 1 min 5 sec) 
Heartbeat CPU  0 instructions:   47000000 cycles:   31585326 heartbeat IPC: 1.78814 cumulative IPC: 1.48803 (Simulation time: 0 hr 1 min 6 sec) 
Heartbeat CPU  0 instructions:   48000000 cycles:   32174415 heartbeat IPC: 1.69754 cumulative IPC: 1.49187 (Simulation time: 0 hr 1 min 8 sec) 
Heartbeat CPU  0 instructions:   49000001 cycles:   32916755 heartbeat IPC: 1.34709 cumulative IPC: 1.48860 (Simulation time: 0 hr 1 min 9 sec) 
Heartbeat CPU  0 instructions:   50000001 cycles:   33784995 heartbeat IPC: 1.15176 cumulative IPC: 1.47995 (Simulation time: 0 hr 1 min 10 sec) 
Heartbeat CPU  0 instructions:   51000003 cycles:   34479092 heartbeat IPC: 1.44072 cumulative IPC: 1.47916 (Simulation time: 0 hr 1 min 11 sec) 
Heartbeat CPU  0 instructions:   52000000 cycles:   35089541 heartbeat IPC: 1.63813 cumulative IPC: 1.48192 (Simulation time: 0 hr 1 min 12 sec) 
Heartbeat CPU  0 instructions:   53000000 cycles:   35669080 heartbeat IPC: 1.72551 cumulative IPC: 1.48588 (Simulation time: 0 hr 1 min 14 sec) 
Heartbeat CPU  0 instructions:   54000002 cycles:   36437106 heartbeat IPC: 1.30204 cumulative IPC: 1.48201 (Simulation time: 0 hr 1 min 16 sec) 
Heartbeat CPU  0 instructions:   55000001 cycles:   37012703 heartbeat IPC: 1.73732 cumulative IPC: 1.48598 (Simulation time: 0 hr 1 min 17 sec) 
Heartbeat CPU  0 instructions:   56000000 cycles:   37565538 heartbeat IPC: 1.80886 cumulative IPC: 1.49073 (Simulation time: 0 hr 1 min 19 sec) 
Heartbeat CPU  0 instructions:   57000002 cycles:   38156466 heartbeat IPC: 1.69226 cumulative IPC: 1.49385 (Simulation time: 0 hr 1 min 20 sec) 
Heartbeat CPU  0 instructions:   58000001 cycles:   38891976 heartbeat IPC: 1.35960 cumulative IPC: 1.49131 (Simulation time: 0 hr 1 min 21 sec) 
Heartbeat CPU  0 instructions:   59000001 cycles:   39762408 heartbeat IPC: 1.14885 cumulative IPC: 1.48381 (Simulation time: 0 hr 1 min 23 sec) 
Heartbeat CPU  0 instructions:   60000000 cycles:   40481879 heartbeat IPC: 1.38991 cumulative IPC: 1.48214 (Simulation time: 0 hr 1 min 24 sec) 
Heartbeat CPU  0 instructions:   61000003 cycles:   41101146 heartbeat IPC: 1.61482 cumulative IPC: 1.48414 (Simulation time: 0 hr 1 min 25 sec) 
Heartbeat CPU  0 instructions:   62000001 cycles:   41671732 heartbeat IPC: 1.75258 cumulative IPC: 1.48782 (Simulation time: 0 hr 1 min 26 sec) 
Heartbeat CPU  0 instructions:   63000000 cycles:   42465856 heartbeat IPC: 1.25925 cumulative IPC: 1.48354 (Simulation time: 0 hr 1 min 28 sec) 
Heartbeat CPU  0 instructions:   64000000 cycles:   43058034 heartbeat IPC: 1.68868 cumulative IPC: 1.48637 (Simulation time: 0 hr 1 min 30 sec) 
Heartbeat CPU  0 instructions:   65000003 cycles:   43607900 heartbeat IPC: 1.81863 cumulative IPC: 1.49056 (Simulation time: 0 hr 1 min 31 sec) 
Heartbeat CPU  0 instructions:   66000002 cycles:   44198132 heartbeat IPC: 1.69425 cumulative IPC: 1.49328 (Simulation time: 0 hr 1 min 32 sec) 
Heartbeat CPU  0 instructions:   67000000 cycles:   44889247 heartbeat IPC: 1.44693 cumulative IPC: 1.49256 (Simulation time: 0 hr 1 min 34 sec) 
Heartbeat CPU  0 instructions:   68000000 cycles:   45765190 heartbeat IPC: 1.14163 cumulative IPC: 1.48585 (Simulation time: 0 hr 1 min 35 sec) 
Heartbeat CPU  0 instructions:   69000001 cycles:   46516941 heartbeat IPC: 1.33023 cumulative IPC: 1.48333 (Simulation time: 0 hr 1 min 36 sec) 
Heartbeat CPU  0 instructions:   70000000 cycles:   47134954 heartbeat IPC: 1.61809 cumulative IPC: 1.48510 (Simulation time: 0 hr 1 min 37 sec) 
Heartbeat CPU  0 instructions:   71000002 cycles:   47669294 heartbeat IPC: 1.87147 cumulative IPC: 1.48943 (Simulation time: 0 hr 1 min 39 sec) 
Heartbeat CPU  0 instructions:   72000000 cycles:   48476893 heartbeat IPC: 1.23824 cumulative IPC: 1.48524 (Simulation time: 0 hr 1 min 40 sec) 
Heartbeat CPU  0 instructions:   73000001 cycles:   49076971 heartbeat IPC: 1.66645 cumulative IPC: 1.48746 (Simulation time: 0 hr 1 min 42 sec) 
Heartbeat CPU  0 instructions:   74000002 cycles:   49620366 heartbeat IPC: 1.84028 cumulative IPC: 1.49132 (Simulation time: 0 hr 1 min 43 sec) 
Heartbeat CPU  0 instructions:   75000003 cycles:   50219341 heartbeat IPC: 1.66952 cumulative IPC: 1.49345 (Simulation time: 0 hr 1 min 45 sec) 
Heartbeat CPU  0 instructions:   76000000 cycles:   50876174 heartbeat IPC: 1.52245 cumulative IPC: 1.49382 (Simulation time: 0 hr 1 min 46 sec) 
Heartbeat CPU  0 instructions:   77000001 cycles:   51749308 heartbeat IPC: 1.14530 cumulative IPC: 1.48794 (Simulation time: 0 hr 1 min 47 sec) 
Heartbeat CPU  0 instructions:   78000001 cycles:   52523128 heartbeat IPC: 1.29229 cumulative IPC: 1.48506 (Simulation time: 0 hr 1 min 48 sec) 
Heartbeat CPU  0 instructions:   79000003 cycles:   53139464 heartbeat IPC: 1.62249 cumulative IPC: 1.48665 (Simulation time: 0 hr 1 min 49 sec) 
Heartbeat CPU  0 instructions:   80000000 cycles:   53707284 heartbeat IPC: 1.76112 cumulative IPC: 1.48956 (Simulation time: 0 hr 1 min 51 sec) 
Heartbeat CPU  0 instructions:   81000001 cycles:   54495655 heartbeat IPC: 1.26844 cumulative IPC: 1.48636 (Simulation time: 0 hr 1 min 52 sec) 
Heartbeat CPU  0 instructions:   82000002 cycles:   55110885 heartbeat IPC: 1.62541 cumulative IPC: 1.48791 (Simulation time: 0 hr 1 min 54 sec) 
Heartbeat CPU  0 instructions:   83000003 cycles:   55671238 heartbeat IPC: 1.78459 cumulative IPC: 1.49090 (Simulation time: 0 hr 1 min 55 sec) 
Heartbeat CPU  0 instructions:   84000000 cycles:   56225531 heartbeat IPC: 1.80409 cumulative IPC: 1.49398 (Simulation time: 0 hr 1 min 57 sec) 
Heartbeat CPU  0 instructions:   85000001 cycles:   56816408 heartbeat IPC: 1.69240 cumulative IPC: 1.49605 (Simulation time: 0 hr 1 min 59 sec) 
Heartbeat CPU  0 instructions:   86000000 cycles:   57689157 heartbeat IPC: 1.14580 cumulative IPC: 1.49075 (Simulation time: 0 hr 2 min 0 sec) 
Heartbeat CPU  0 instructions:   87000000 cycles:   58516105 heartbeat IPC: 1.20927 cumulative IPC: 1.48677 (Simulation time: 0 hr 2 min 1 sec) 
Heartbeat CPU  0 instructions:   88000000 cycles:   59135619 heartbeat IPC: 1.61417 cumulative IPC: 1.48810 (Simulation time: 0 hr 2 min 2 sec) 
Heartbeat CPU  0 instructions:   89000003 cycles:   59779905 heartbeat IPC: 1.55211 cumulative IPC: 1.48879 (Simulation time: 0 hr 2 min 3 sec) 
Heartbeat CPU  0 instructions:   90000003 cycles:   60475263 heartbeat IPC: 1.43811 cumulative IPC: 1.48821 (Simulation time: 0 hr 2 min 5 sec) 
Heartbeat CPU  0 instructions:   91000001 cycles:   61152307 heartbeat IPC: 1.47701 cumulative IPC: 1.48809 (Simulation time: 0 hr 2 min 6 sec) 
Heartbeat CPU  0 instructions:   92000000 cycles:   61724025 heartbeat IPC: 1.74911 cumulative IPC: 1.49051 (Simulation time: 0 hr 2 min 8 sec) 
Heartbeat CPU  0 instructions:   93000003 cycles:   62269690 heartbeat IPC: 1.83263 cumulative IPC: 1.49350 (Simulation time: 0 hr 2 min 9 sec) 
Heartbeat CPU  0 instructions:   94000002 cycles:   62861777 heartbeat IPC: 1.68894 cumulative IPC: 1.49534 (Simulation time: 0 hr 2 min 11 sec) 
Heartbeat CPU  0 instructions:   95000003 cycles:   63699427 heartbeat IPC: 1.19382 cumulative IPC: 1.49138 (Simulation time: 0 hr 2 min 12 sec) 
Heartbeat CPU  0 instructions:   96000000 cycles:   64547250 heartbeat IPC: 1.17949 cumulative IPC: 1.48728 (Simulation time: 0 hr 2 min 13 sec) 
Heartbeat CPU  0 instructions:   97000002 cycles:   65182457 heartbeat IPC: 1.57429 cumulative IPC: 1.48813 (Simulation time: 0 hr 2 min 14 sec) 
Heartbeat CPU  0 instructions:   98000003 cycles:   65832211 heartbeat IPC: 1.53905 cumulative IPC: 1.48863 (Simulation time: 0 hr 2 min 15 sec) 
Heartbeat CPU  0 instructions:   99000002 cycles:   66485667 heartbeat IPC: 1.53032 cumulative IPC: 1.48904 (Simulation time: 0 hr 2 min 17 sec) 
Heartbeat CPU  0 instructions:  100000000 cycles:   67070489 heartbeat IPC: 1.70992 cumulative IPC: 1.49097 (Simulation time: 0 hr 2 min 19 sec) 

Warmup complete CPU  0 instructions:  100000002 cycles:   67070491 (Simulation time: 0 hr 2 min 19 sec) 

Heartbeat CPU  0 instructions:  101000001 cycles:   73911928 heartbeat IPC: 0.14617 cumulative IPC: 0.14617 (Simulation time: 0 hr 2 min 22 sec) 
Heartbeat CPU  0 instructions:  102000001 cycles:   77935711 heartbeat IPC: 0.24852 cumulative IPC: 0.18407 (Simulation time: 0 hr 2 min 25 sec) 
Heartbeat CPU  0 instructions:  103000001 cycles:   82150837 heartbeat IPC: 0.23724 cumulative IPC: 0.19893 (Simulation time: 0 hr 2 min 28 sec) 
Heartbeat CPU  0 instructions:  104000000 cycles:   87103910 heartbeat IPC: 0.20189 cumulative IPC: 0.19967 (Simulation time: 0 hr 2 min 32 sec) 
Heartbeat CPU  0 instructions:  105000003 cycles:   90708382 heartbeat IPC: 0.27743 cumulative IPC: 0.21152 (Simulation time: 0 hr 2 min 35 sec) 
Heartbeat CPU  0 instructions:  106000001 cycles:   94003941 heartbeat IPC: 0.30344 cumulative IPC: 0.22277 (Simulation time: 0 hr 2 min 38 sec) 
Heartbeat CPU  0 instructions:  107000003 cycles:   98738339 heartbeat IPC: 0.21122 cumulative IPC: 0.22104 (Simulation time: 0 hr 2 min 41 sec) 
Heartbeat CPU  0 instructions:  108000000 cycles:  102782279 heartbeat IPC: 0.24728 cumulative IPC: 0.22402 (Simulation time: 0 hr 2 min 43 sec) 
Heartbeat CPU  0 instructions:  109000000 cycles:  106733268 heartbeat IPC: 0.25310 cumulative IPC: 0.22691 (Simulation time: 0 hr 2 min 46 sec) 
Heartbeat CPU  0 instructions:  110000001 cycles:  109376707 heartbeat IPC: 0.37830 cumulative IPC: 0.23637 (Simulation time: 0 hr 2 min 48 sec) 
Heartbeat CPU  0 instructions:  111000003 cycles:  112423022 heartbeat IPC: 0.32827 cumulative IPC: 0.24254 (Simulation time: 0 hr 2 min 51 sec) 
Heartbeat CPU  0 instructions:  112000000 cycles:  114350505 heartbeat IPC: 0.51881 cumulative IPC: 0.25381 (Simulation time: 0 hr 2 min 53 sec) 
Heartbeat CPU  0 instructions:  113000002 cycles:  116151823 heartbeat IPC: 0.55515 cumulative IPC: 0.26487 (Simulation time: 0 hr 2 min 56 sec) 
Heartbeat CPU  0 instructions:  114000000 cycles:  117710161 heartbeat IPC: 0.64171 cumulative IPC: 0.27646 (Simulation time: 0 hr 2 min 58 sec) 
Heartbeat CPU  0 instructions:  115000000 cycles:  119853213 heartbeat IPC: 0.46662 cumulative IPC: 0.28418 (Simulation time: 0 hr 3 min 1 sec) 
Heartbeat CPU  0 instructions:  116000000 cycles:  123578576 heartbeat IPC: 0.26843 cumulative IPC: 0.28315 (Simulation time: 0 hr 3 min 3 sec) 
Heartbeat CPU  0 instructions:  117000000 cycles:  126662805 heartbeat IPC: 0.32423 cumulative IPC: 0.28527 (Simulation time: 0 hr 3 min 6 sec) 
Heartbeat CPU  0 instructions:  118000000 cycles:  128545951 heartbeat IPC: 0.53103 cumulative IPC: 0.29280 (Simulation time: 0 hr 3 min 8 sec) 
Heartbeat CPU  0 instructions:  119000000 cycles:  130755869 heartbeat IPC: 0.45251 cumulative IPC: 0.29834 (Simulation time: 0 hr 3 min 11 sec) 
Heartbeat CPU  0 instructions:  120000000 cycles:  132761905 heartbeat IPC: 0.49850 cumulative IPC: 0.30445 (Simulation time: 0 hr 3 min 13 sec) 
Heartbeat CPU  0 instructions:  121000001 cycles:  137373230 heartbeat IPC: 0.21686 cumulative IPC: 0.29871 (Simulation time: 0 hr 3 min 17 sec) 
Heartbeat CPU  0 instructions:  122000001 cycles:  141346972 heartbeat IPC: 0.25165 cumulative IPC: 0.29619 (Simulation time: 0 hr 3 min 20 sec) 
Heartbeat CPU  0 instructions:  123000000 cycles:  143146326 heartbeat IPC: 0.55575 cumulative IPC: 0.30233 (Simulation time: 0 hr 3 min 21 sec) 
Heartbeat CPU  0 instructions:  124000000 cycles:  144628613 heartbeat IPC: 0.67463 cumulative IPC: 0.30945 (Simulation time: 0 hr 3 min 23 sec) 
Heartbeat CPU  0 instructions:  125000000 cycles:  148945415 heartbeat IPC: 0.23165 cumulative IPC: 0.30534 (Simulation time: 0 hr 3 min 25 sec) 
Heartbeat CPU  0 instructions:  126000001 cycles:  151831000 heartbeat IPC: 0.34655 cumulative IPC: 0.30675 (Simulation time: 0 hr 3 min 28 sec) 
Heartbeat CPU  0 instructions:  127000002 cycles:  155146221 heartbeat IPC: 0.30164 cumulative IPC: 0.30655 (Simulation time: 0 hr 3 min 31 sec) 
Heartbeat CPU  0 instructions:  128000000 cycles:  157628194 heartbeat IPC: 0.40290 cumulative IPC: 0.30920 (Simulation time: 0 hr 3 min 33 sec) 
Heartbeat CPU  0 instructions:  129000000 cycles:  159904508 heartbeat IPC: 0.43931 cumulative IPC: 0.31239 (Simulation time: 0 hr 3 min 36 sec) 
Heartbeat CPU  0 instructions:  130000001 cycles:  165744805 heartbeat IPC: 0.17122 cumulative IPC: 0.30403 (Simulation time: 0 hr 3 min 40 sec) 
Heartbeat CPU  0 instructions:  131000000 cycles:  167747352 heartbeat IPC: 0.49936 cumulative IPC: 0.30792 (Simulation time: 0 hr 3 min 42 sec) 
Heartbeat CPU  0 instructions:  132000000 cycles:  169444881 heartbeat IPC: 0.58909 cumulative IPC: 0.31258 (Simulation time: 0 hr 3 min 43 sec) 
Heartbeat CPU  0 instructions:  133000000 cycles:  171793786 heartbeat IPC: 0.42573 cumulative IPC: 0.31512 (Simulation time: 0 hr 3 min 45 sec) 
Heartbeat CPU  0 instructions:  134000000 cycles:  175895147 heartbeat IPC: 0.24382 cumulative IPC: 0.31243 (Simulation time: 0 hr 3 min 48 sec) 
Heartbeat CPU  0 instructions:  135000002 cycles:  179386525 heartbeat IPC: 0.28642 cumulative IPC: 0.31162 (Simulation time: 0 hr 3 min 51 sec) 
Heartbeat CPU  0 instructions:  136000000 cycles:  181282708 heartbeat IPC: 0.52737 cumulative IPC: 0.31520 (Simulation time: 0 hr 3 min 53 sec) 
Heartbeat CPU  0 instructions:  137000000 cycles:  183735065 heartbeat IPC: 0.40777 cumulative IPC: 0.31715 (Simulation time: 0 hr 3 min 55 sec) 
Heartbeat CPU  0 instructions:  138000001 cycles:  186918839 heartbeat IPC: 0.31409 cumulative IPC: 0.31707 (Simulation time: 0 hr 3 min 58 sec) 
Heartbeat CPU  0 instructions:  139000000 cycles:  192133124 heartbeat IPC: 0.19178 cumulative IPC: 0.31184 (Simulation time: 0 hr 4 min 2 sec) 
Heartbeat CPU  0 instructions:  140000000 cycles:  193955478 heartbeat IPC: 0.54874 cumulative IPC: 0.31525 (Simulation time: 0 hr 4 min 4 sec) 
Heartbeat CPU  0 instructions:  141000000 cycles:  195560504 heartbeat IPC: 0.62304 cumulative IPC: 0.31909 (Simulation time: 0 hr 4 min 5 sec) 
Heartbeat CPU  0 instructions:  142000000 cycles:  198741978 heartbeat IPC: 0.31432 cumulative IPC: 0.31898 (Simulation time: 0 hr 4 min 7 sec) 
Heartbeat CPU  0 instructions:  143000000 cycles:  201993212 heartbeat IPC: 0.30758 cumulative IPC: 0.31870 (Simulation time: 0 hr 4 min 10 sec) 
Heartbeat CPU  0 instructions:  144000000 cycles:  205641243 heartbeat IPC: 0.27412 cumulative IPC: 0.31753 (Simulation time: 0 hr 4 min 13 sec) 
Heartbeat CPU  0 instructions:  145000002 cycles:  207655125 heartbeat IPC: 0.49655 cumulative IPC: 0.32009 (Simulation time: 0 hr 4 min 15 sec) 
Heartbeat CPU  0 instructions:  146000003 cycles:  209776265 heartbeat IPC: 0.47145 cumulative IPC: 0.32234 (Simulation time: 0 hr 4 min 18 sec) 
Heartbeat CPU  0 instructions:  147000002 cycles:  214082074 heartbeat IPC: 0.23224 cumulative IPC: 0.31970 (Simulation time: 0 hr 4 min 21 sec) 
Heartbeat CPU  0 instructions:  148000000 cycles:  218359052 heartbeat IPC: 0.23381 cumulative IPC: 0.31727 (Simulation time: 0 hr 4 min 24 sec) 
Heartbeat CPU  0 instructions:  149000000 cycles:  220176217 heartbeat IPC: 0.55031 cumulative IPC: 0.32004 (Simulation time: 0 hr 4 min 26 sec) 
Heartbeat CPU  0 instructions:  150000002 cycles:  221699759 heartbeat IPC: 0.65637 cumulative IPC: 0.32335 (Simulation time: 0 hr 4 min 27 sec) 
Heartbeat CPU  0 instructions:  151000003 cycles:  225612413 heartbeat IPC: 0.25558 cumulative IPC: 0.32168 (Simulation time: 0 hr 4 min 30 sec) 
Heartbeat CPU  0 instructions:  152000000 cycles:  228468286 heartbeat IPC: 0.35015 cumulative IPC: 0.32219 (Simulation time: 0 hr 4 min 32 sec) 
Heartbeat CPU  0 instructions:  153000000 cycles:  231608555 heartbeat IPC: 0.31844 cumulative IPC: 0.32211 (Simulation time: 0 hr 4 min 35 sec) 
Heartbeat CPU  0 instructions:  154000002 cycles:  234163333 heartbeat IPC: 0.39142 cumulative IPC: 0.32317 (Simulation time: 0 hr 4 min 37 sec) 
Heartbeat CPU  0 instructions:  155000002 cycles:  235867377 heartbeat IPC: 0.58684 cumulative IPC: 0.32584 (Simulation time: 0 hr 4 min 39 sec) 
Heartbeat CPU  0 instructions:  156000000 cycles:  241033841 heartbeat IPC: 0.19356 cumulative IPC: 0.32191 (Simulation time: 0 hr 4 min 43 sec) 
Heartbeat CPU  0 instructions:  157000000 cycles:  244601900 heartbeat IPC: 0.28026 cumulative IPC: 0.32107 (Simulation time: 0 hr 4 min 46 sec) 
Heartbeat CPU  0 instructions:  158000003 cycles:  246394260 heartbeat IPC: 0.55793 cumulative IPC: 0.32344 (Simulation time: 0 hr 4 min 47 sec) 
Heartbeat CPU  0 instructions:  159000000 cycles:  247830288 heartbeat IPC: 0.69636 cumulative IPC: 0.32640 (Simulation time: 0 hr 4 min 49 sec) 
Heartbeat CPU  0 instructions:  160000000 cycles:  252773607 heartbeat IPC: 0.20229 cumulative IPC: 0.32310 (Simulation time: 0 hr 4 min 52 sec) 
Heartbeat CPU  0 instructions:  161000003 cycles:  255436874 heartbeat IPC: 0.37548 cumulative IPC: 0.32384 (Simulation time: 0 hr 4 min 54 sec) 
Heartbeat CPU  0 instructions:  162000001 cycles:  258279738 heartbeat IPC: 0.35176 cumulative IPC: 0.32425 (Simulation time: 0 hr 4 min 57 sec) 
Heartbeat CPU  0 instructions:  163000000 cycles:  260783913 heartbeat IPC: 0.39933 cumulative IPC: 0.32522 (Simulation time: 0 hr 4 min 59 sec) 
Heartbeat CPU  0 instructions:  164000000 cycles:  263039173 heartbeat IPC: 0.44341 cumulative IPC: 0.32658 (Simulation time: 0 hr 5 min 2 sec) 
Heartbeat CPU  0 instructions:  165000001 cycles:  268828759 heartbeat IPC: 0.17272 cumulative IPC: 0.32217 (Simulation time: 0 hr 5 min 6 sec) 
Heartbeat CPU  0 instructions:  166000000 cycles:  270909283 heartbeat IPC: 0.48065 cumulative IPC: 0.32379 (Simulation time: 0 hr 5 min 8 sec) 
Heartbeat CPU  0 instructions:  167000001 cycles:  272610432 heartbeat IPC: 0.58784 cumulative IPC: 0.32597 (Simulation time: 0 hr 5 min 9 sec) 
Heartbeat CPU  0 instructions:  168000000 cycles:  274931646 heartbeat IPC: 0.43081 cumulative IPC: 0.32714 (Simulation time: 0 hr 5 min 11 sec) 
Heartbeat CPU  0 instructions:  169000001 cycles:  279044206 heartbeat IPC: 0.24316 cumulative IPC: 0.32551 (Simulation time: 0 hr 5 min 14 sec) 
Heartbeat CPU  0 instructions:  170000002 cycles:  282556421 heartbeat IPC: 0.28472 cumulative IPC: 0.32485 (Simulation time: 0 hr 5 min 17 sec) 
Heartbeat CPU  0 instructions:  171000000 cycles:  284450183 heartbeat IPC: 0.52805 cumulative IPC: 0.32662 (Simulation time: 0 hr 5 min 19 sec) 
Heartbeat CPU  0 instructions:  172000000 cycles:  286919253 heartbeat IPC: 0.40501 cumulative IPC: 0.32750 (Simulation time: 0 hr 5 min 21 sec) 
Heartbeat CPU  0 instructions:  173000000 cycles:  290031506 heartbeat IPC: 0.32131 cumulative IPC: 0.32741 (Simulation time: 0 hr 5 min 24 sec) 
Heartbeat CPU  0 instructions:  174000000 cycles:  295297841 heartbeat IPC: 0.18989 cumulative IPC: 0.32424 (Simulation time: 0 hr 5 min 28 sec) 
Heartbeat CPU  0 instructions:  175000000 cycles:  297119845 heartbeat IPC: 0.54885 cumulative IPC: 0.32602 (Simulation time: 0 hr 5 min 30 sec) 
Heartbeat CPU  0 instructions:  176000000 cycles:  298730423 heartbeat IPC: 0.62090 cumulative IPC: 0.32807 (Simulation time: 0 hr 5 min 31 sec) 
Heartbeat CPU  0 instructions:  177000001 cycles:  301837893 heartbeat IPC: 0.32181 cumulative IPC: 0.32798 (Simulation time: 0 hr 5 min 33 sec) 
Heartbeat CPU  0 instructions:  178000001 cycles:  305163436 heartbeat IPC: 0.30070 cumulative IPC: 0.32760 (Simulation time: 0 hr 5 min 36 sec) 
Heartbeat CPU  0 instructions:  179000003 cycles:  308831209 heartbeat IPC: 0.27265 cumulative IPC: 0.32677 (Simulation time: 0 hr 5 min 39 sec) 
Heartbeat CPU  0 instructions:  180000000 cycles:  311141210 heartbeat IPC: 0.43290 cumulative IPC: 0.32777 (Simulation time: 0 hr 5 min 41 sec) 
Heartbeat CPU  0 instructions:  181000003 cycles:  313018691 heartbeat IPC: 0.53263 cumulative IPC: 0.32934 (Simulation time: 0 hr 5 min 44 sec) 
Heartbeat CPU  0 instructions:  182000000 cycles:  317964507 heartbeat IPC: 0.20219 cumulative IPC: 0.32683 (Simulation time: 0 hr 5 min 47 sec) 
Heartbeat CPU  0 instructions:  183000000 cycles:  321687934 heartbeat IPC: 0.26857 cumulative IPC: 0.32598 (Simulation time: 0 hr 5 min 50 sec) 
Heartbeat CPU  0 instructions:  184000000 cycles:  323478816 heartbeat IPC: 0.55838 cumulative IPC: 0.32760 (Simulation time: 0 hr 5 min 51 sec) 
Heartbeat CPU  0 instructions:  185000002 cycles:  324915417 heartbeat IPC: 0.69609 cumulative IPC: 0.32966 (Simulation time: 0 hr 5 min 53 sec) 
Heartbeat CPU  0 instructions:  186000001 cycles:  329645291 heartbeat IPC: 0.21142 cumulative IPC: 0.32753 (Simulation time: 0 hr 5 min 56 sec) 
Heartbeat CPU  0 instructions:  187000000 cycles:  332413402 heartbeat IPC: 0.36126 cumulative IPC: 0.32788 (Simulation time: 0 hr 5 min 58 sec) 
Heartbeat CPU  0 instructions:  188000000 cycles:  334963601 heartbeat IPC: 0.39213 cumulative IPC: 0.32849 (Simulation time: 0 hr 6 min 1 sec) 
Heartbeat CPU  0 instructions:  189000001 cycles:  337659190 heartbeat IPC: 0.37098 cumulative IPC: 0.32891 (Simulation time: 0 hr 6 min 3 sec) 
Heartbeat CPU  0 instructions:  190000003 cycles:  339479000 heartbeat IPC: 0.54951 cumulative IPC: 0.33039 (Simulation time: 0 hr 6 min 6 sec) 
Heartbeat CPU  0 instructions:  191000002 cycles:  345068019 heartbeat IPC: 0.17892 cumulative IPC: 0.32734 (Simulation time: 0 hr 6 min 10 sec) 
Heartbeat CPU  0 instructions:  192000000 cycles:  347877776 heartbeat IPC: 0.35590 cumulative IPC: 0.32763 (Simulation time: 0 hr 6 min 12 sec) 
Heartbeat CPU  0 instructions:  193000003 cycles:  349627214 heartbeat IPC: 0.57161 cumulative IPC: 0.32914 (Simulation time: 0 hr 6 min 13 sec) 
Heartbeat CPU  0 instructions:  194000001 cycles:  351421568 heartbeat IPC: 0.55730 cumulative IPC: 0.33058 (Simulation time: 0 hr 6 min 15 sec) 
Heartbeat CPU  0 instructions:  195000001 cycles:  356019034 heartbeat IPC: 0.21751 cumulative IPC: 0.32878 (Simulation time: 0 hr 6 min 18 sec) 
Heartbeat CPU  0 instructions:  196000000 cycles:  359175805 heartbeat IPC: 0.31678 cumulative IPC: 0.32865 (Simulation time: 0 hr 6 min 21 sec) 
Heartbeat CPU  0 instructions:  197000000 cycles:  361450544 heartbeat IPC: 0.43961 cumulative IPC: 0.32951 (Simulation time: 0 hr 6 min 23 sec) 
Heartbeat CPU  0 instructions:  198000000 cycles:  363923206 heartbeat IPC: 0.40442 cumulative IPC: 0.33013 (Simulation time: 0 hr 6 min 26 sec) 
Heartbeat CPU  0 instructions:  199000000 cycles:  366422320 heartbeat IPC: 0.40014 cumulative IPC: 0.33071 (Simulation time: 0 hr 6 min 28 sec) 
Heartbeat CPU  0 instructions:  200000000 cycles:  372248810 heartbeat IPC: 0.17163 cumulative IPC: 0.32768 (Simulation time: 0 hr 6 min 32 sec) 
Heartbeat CPU  0 instructions:  201000000 cycles:  374080287 heartbeat IPC: 0.54601 cumulative IPC: 0.32898 (Simulation time: 0 hr 6 min 34 sec) 
Heartbeat CPU  0 instructions:  202000002 cycles:  375756713 heartbeat IPC: 0.59651 cumulative IPC: 0.33043 (Simulation time: 0 hr 6 min 35 sec) 
Heartbeat CPU  0 instructions:  203000002 cycles:  378301643 heartbeat IPC: 0.39294 cumulative IPC: 0.33094 (Simulation time: 0 hr 6 min 37 sec) 
Heartbeat CPU  0 instructions:  204000000 cycles:  382219598 heartbeat IPC: 0.25523 cumulative IPC: 0.33000 (Simulation time: 0 hr 6 min 40 sec) 
Heartbeat CPU  0 instructions:  205000000 cycles:  385751375 heartbeat IPC: 0.28314 cumulative IPC: 0.32948 (Simulation time: 0 hr 6 min 43 sec) 
Heartbeat CPU  0 instructions:  206000000 cycles:  386523846 heartbeat IPC: 1.29455 cumulative IPC: 0.33182 (Simulation time: 0 hr 6 min 45 sec) 
Heartbeat CPU  0 instructions:  207000002 cycles:  395388724 heartbeat IPC: 0.11280 cumulative IPC: 0.32590 (Simulation time: 0 hr 6 min 49 sec) 
Heartbeat CPU  0 instructions:  208000000 cycles:  397648600 heartbeat IPC: 0.44250 cumulative IPC: 0.32670 (Simulation time: 0 hr 6 min 51 sec) 
Heartbeat CPU  0 instructions:  209000001 cycles:  402643008 heartbeat IPC: 0.20022 cumulative IPC: 0.32482 (Simulation time: 0 hr 6 min 55 sec) 
Heartbeat CPU  0 instructions:  210000000 cycles:  407409251 heartbeat IPC: 0.20981 cumulative IPC: 0.32321 (Simulation time: 0 hr 6 min 58 sec) 
Heartbeat CPU  0 instructions:  211000001 cycles:  411086993 heartbeat IPC: 0.27191 cumulative IPC: 0.32266 (Simulation time: 0 hr 7 min 1 sec) 
Heartbeat CPU  0 instructions:  212000000 cycles:  414179717 heartbeat IPC: 0.32334 cumulative IPC: 0.32267 (Simulation time: 0 hr 7 min 5 sec) 
Heartbeat CPU  0 instructions:  213000002 cycles:  418958437 heartbeat IPC: 0.20926 cumulative IPC: 0.32112 (Simulation time: 0 hr 7 min 7 sec) 
Heartbeat CPU  0 instructions:  214000001 cycles:  423154897 heartbeat IPC: 0.23830 cumulative IPC: 0.32015 (Simulation time: 0 hr 7 min 10 sec) 
Heartbeat CPU  0 instructions:  215000002 cycles:  426791587 heartbeat IPC: 0.27498 cumulative IPC: 0.31969 (Simulation time: 0 hr 7 min 13 sec) 
Heartbeat CPU  0 instructions:  216000000 cycles:  429352660 heartbeat IPC: 0.39046 cumulative IPC: 0.32019 (Simulation time: 0 hr 7 min 15 sec) 
Heartbeat CPU  0 instructions:  217000000 cycles:  432374392 heartbeat IPC: 0.33094 cumulative IPC: 0.32028 (Simulation time: 0 hr 7 min 17 sec) 
Heartbeat CPU  0 instructions:  218000002 cycles:  434256268 heartbeat IPC: 0.53139 cumulative IPC: 0.32136 (Simulation time: 0 hr 7 min 20 sec) 
Heartbeat CPU  0 instructions:  219000002 cycles:  435753053 heartbeat IPC: 0.66810 cumulative IPC: 0.32277 (Simulation time: 0 hr 7 min 22 sec) 
Heartbeat CPU  0 instructions:  220000000 cycles:  437547776 heartbeat IPC: 0.55719 cumulative IPC: 0.32391 (Simulation time: 0 hr 7 min 24 sec) 
Heartbeat CPU  0 instructions:  221000003 cycles:  440038915 heartbeat IPC: 0.40142 cumulative IPC: 0.32442 (Simulation time: 0 hr 7 min 27 sec) 
Heartbeat CPU  0 instructions:  222000003 cycles:  443490324 heartbeat IPC: 0.28974 cumulative IPC: 0.32411 (Simulation time: 0 hr 7 min 30 sec) 
Heartbeat CPU  0 instructions:  223000001 cycles:  446608690 heartbeat IPC: 0.32068 cumulative IPC: 0.32408 (Simulation time: 0 hr 7 min 33 sec) 
Heartbeat CPU  0 instructions:  224000000 cycles:  448265914 heartbeat IPC: 0.60342 cumulative IPC: 0.32529 (Simulation time: 0 hr 7 min 35 sec) 
Heartbeat CPU  0 instructions:  225000000 cycles:  450815755 heartbeat IPC: 0.39218 cumulative IPC: 0.32574 (Simulation time: 0 hr 7 min 37 sec) 
Heartbeat CPU  0 instructions:  226000003 cycles:  452400589 heartbeat IPC: 0.63098 cumulative IPC: 0.32699 (Simulation time: 0 hr 7 min 40 sec) 
Heartbeat CPU  0 instructions:  227000000 cycles:  457968462 heartbeat IPC: 0.17960 cumulative IPC: 0.32489 (Simulation time: 0 hr 7 min 44 sec) 
Heartbeat CPU  0 instructions:  228000000 cycles:  461092202 heartbeat IPC: 0.32013 cumulative IPC: 0.32486 (Simulation time: 0 hr 7 min 46 sec) 
Heartbeat CPU  0 instructions:  229000001 cycles:  462860151 heartbeat IPC: 0.56563 cumulative IPC: 0.32593 (Simulation time: 0 hr 7 min 47 sec) 
Heartbeat CPU  0 instructions:  230000000 cycles:  464405599 heartbeat IPC: 0.64706 cumulative IPC: 0.32718 (Simulation time: 0 hr 7 min 49 sec) 
Heartbeat CPU  0 instructions:  231000000 cycles:  469248383 heartbeat IPC: 0.20649 cumulative IPC: 0.32573 (Simulation time: 0 hr 7 min 52 sec) 
Heartbeat CPU  0 instructions:  232000000 cycles:  472214430 heartbeat IPC: 0.33715 cumulative IPC: 0.32581 (Simulation time: 0 hr 7 min 55 sec) 
Heartbeat CPU  0 instructions:  233000000 cycles:  474869363 heartbeat IPC: 0.37666 cumulative IPC: 0.32614 (Simulation time: 0 hr 7 min 57 sec) 
Heartbeat CPU  0 instructions:  234000002 cycles:  477296438 heartbeat IPC: 0.41202 cumulative IPC: 0.32665 (Simulation time: 0 hr 8 min 0 sec) 
Heartbeat CPU  0 instructions:  235000000 cycles:  480476894 heartbeat IPC: 0.31442 cumulative IPC: 0.32656 (Simulation time: 0 hr 8 min 3 sec) 
Heartbeat CPU  0 instructions:  236000000 cycles:  485676230 heartbeat IPC: 0.19233 cumulative IPC: 0.32489 (Simulation time: 0 hr 8 min 6 sec) 
Heartbeat CPU  0 instructions:  237000002 cycles:  487491494 heartbeat IPC: 0.55089 cumulative IPC: 0.32586 (Simulation time: 0 hr 8 min 8 sec) 
Heartbeat CPU  0 instructions:  238000002 cycles:  489092444 heartbeat IPC: 0.62463 cumulative IPC: 0.32700 (Simulation time: 0 hr 8 min 10 sec) 
Heartbeat CPU  0 instructions:  239000001 cycles:  492287979 heartbeat IPC: 0.31294 cumulative IPC: 0.32689 (Simulation time: 0 hr 8 min 13 sec) 
Heartbeat CPU  0 instructions:  240000000 cycles:  495525729 heartbeat IPC: 0.30886 cumulative IPC: 0.32676 (Simulation time: 0 hr 8 min 16 sec) 
Heartbeat CPU  0 instructions:  241000001 cycles:  499167802 heartbeat IPC: 0.27457 cumulative IPC: 0.32632 (Simulation time: 0 hr 8 min 19 sec) 
Heartbeat CPU  0 instructions:  242000002 cycles:  501193708 heartbeat IPC: 0.49361 cumulative IPC: 0.32710 (Simulation time: 0 hr 8 min 21 sec) 
Heartbeat CPU  0 instructions:  243000002 cycles:  503303841 heartbeat IPC: 0.47390 cumulative IPC: 0.32781 (Simulation time: 0 hr 8 min 24 sec) 
Heartbeat CPU  0 instructions:  244000000 cycles:  507632965 heartbeat IPC: 0.23099 cumulative IPC: 0.32685 (Simulation time: 0 hr 8 min 27 sec) 
Heartbeat CPU  0 instructions:  245000001 cycles:  511870060 heartbeat IPC: 0.23601 cumulative IPC: 0.32599 (Simulation time: 0 hr 8 min 31 sec) 
Heartbeat CPU  0 instructions:  246000001 cycles:  513684712 heartbeat IPC: 0.55107 cumulative IPC: 0.32690 (Simulation time: 0 hr 8 min 32 sec) 
Heartbeat CPU  0 instructions:  247000001 cycles:  515208814 heartbeat IPC: 0.65612 cumulative IPC: 0.32802 (Simulation time: 0 hr 8 min 34 sec) 
Heartbeat CPU  0 instructions:  248000000 cycles:  519162763 heartbeat IPC: 0.25291 cumulative IPC: 0.32737 (Simulation time: 0 hr 8 min 36 sec) 
Heartbeat CPU  0 instructions:  249000000 cycles:  522000198 heartbeat IPC: 0.35243 cumulative IPC: 0.32752 (Simulation time: 0 hr 8 min 39 sec) 
Heartbeat CPU  0 instructions:  250000000 cycles:  525116535 heartbeat IPC: 0.32089 cumulative IPC: 0.32748 (Simulation time: 0 hr 8 min 42 sec) 
Heartbeat CPU  0 instructions:  251000002 cycles:  527695773 heartbeat IPC: 0.38771 cumulative IPC: 0.32782 (Simulation time: 0 hr 8 min 44 sec) 
Heartbeat CPU  0 instructions:  252000000 cycles:  529369047 heartbeat IPC: 0.59763 cumulative IPC: 0.32879 (Simulation time: 0 hr 8 min 47 sec) 
Heartbeat CPU  0 instructions:  253000000 cycles:  534556285 heartbeat IPC: 0.19278 cumulative IPC: 0.32728 (Simulation time: 0 hr 8 min 51 sec) 
Heartbeat CPU  0 instructions:  254000000 cycles:  538087895 heartbeat IPC: 0.28316 cumulative IPC: 0.32695 (Simulation time: 0 hr 8 min 54 sec) 
Heartbeat CPU  0 instructions:  255000002 cycles:  539875472 heartbeat IPC: 0.55942 cumulative IPC: 0.32783 (Simulation time: 0 hr 8 min 55 sec) 
Heartbeat CPU  0 instructions:  256000000 cycles:  541311191 heartbeat IPC: 0.69651 cumulative IPC: 0.32895 (Simulation time: 0 hr 8 min 57 sec) 
Heartbeat CPU  0 instructions:  257000000 cycles:  546291563 heartbeat IPC: 0.20079 cumulative IPC: 0.32761 (Simulation time: 0 hr 9 min 0 sec) 
Heartbeat CPU  0 instructions:  258000002 cycles:  548961511 heartbeat IPC: 0.37454 cumulative IPC: 0.32787 (Simulation time: 0 hr 9 min 3 sec) 
Heartbeat CPU  0 instructions:  259000003 cycles:  551473419 heartbeat IPC: 0.39810 cumulative IPC: 0.32824 (Simulation time: 0 hr 9 min 5 sec) 
Heartbeat CPU  0 instructions:  260000000 cycles:  554121427 heartbeat IPC: 0.37764 cumulative IPC: 0.32851 (Simulation time: 0 hr 9 min 8 sec) 
Heartbeat CPU  0 instructions:  261000000 cycles:  556111458 heartbeat IPC: 0.50250 cumulative IPC: 0.32922 (Simulation time: 0 hr 9 min 11 sec) 
Heartbeat CPU  0 instructions:  262000000 cycles:  561735413 heartbeat IPC: 0.17781 cumulative IPC: 0.32749 (Simulation time: 0 hr 9 min 15 sec) 
Heartbeat CPU  0 instructions:  263000002 cycles:  564302243 heartbeat IPC: 0.38959 cumulative IPC: 0.32781 (Simulation time: 0 hr 9 min 17 sec) 
Heartbeat CPU  0 instructions:  264000000 cycles:  566032370 heartbeat IPC: 0.57799 cumulative IPC: 0.32868 (Simulation time: 0 hr 9 min 19 sec) 
Heartbeat CPU  0 instructions:  265000003 cycles:  568073107 heartbeat IPC: 0.49002 cumulative IPC: 0.32934 (Simulation time: 0 hr 9 min 21 sec) 
Heartbeat CPU  0 instructions:  266000002 cycles:  572447745 heartbeat IPC: 0.22859 cumulative IPC: 0.32847 (Simulation time: 0 hr 9 min 24 sec) 
Heartbeat CPU  0 instructions:  267000000 cycles:  575775280 heartbeat IPC: 0.30052 cumulative IPC: 0.32828 (Simulation time: 0 hr 9 min 27 sec) 
Heartbeat CPU  0 instructions:  268000000 cycles:  577856999 heartbeat IPC: 0.48037 cumulative IPC: 0.32890 (Simulation time: 0 hr 9 min 29 sec) 
Heartbeat CPU  0 instructions:  269000002 cycles:  580335249 heartbeat IPC: 0.40351 cumulative IPC: 0.32926 (Simulation time: 0 hr 9 min 32 sec) 
Heartbeat CPU  0 instructions:  270000002 cycles:  583084431 heartbeat IPC: 0.36374 cumulative IPC: 0.32945 (Simulation time: 0 hr 9 min 35 sec) 
Heartbeat CPU  0 instructions:  271000003 cycles:  588692762 heartbeat IPC: 0.17831 cumulative IPC: 0.32782 (Simulation time: 0 hr 9 min 39 sec) 
Heartbeat CPU  0 instructions:  272000000 cycles:  590523666 heartbeat IPC: 0.54618 cumulative IPC: 0.32859 (Simulation time: 0 hr 9 min 41 sec) 
Heartbeat CPU  0 instructions:  273000003 cycles:  592165758 heartbeat IPC: 0.60898 cumulative IPC: 0.32946 (Simulation time: 0 hr 9 min 42 sec) 
Heartbeat CPU  0 instructions:  274000002 cycles:  594941604 heartbeat IPC: 0.36025 cumulative IPC: 0.32963 (Simulation time: 0 hr 9 min 44 sec) 
Heartbeat CPU  0 instructions:  275000000 cycles:  598623129 heartbeat IPC: 0.27163 cumulative IPC: 0.32922 (Simulation time: 0 hr 9 min 47 sec) 
Heartbeat CPU  0 instructions:  276000000 cycles:  602175423 heartbeat IPC: 0.28151 cumulative IPC: 0.32891 (Simulation time: 0 hr 9 min 51 sec) 
Heartbeat CPU  0 instructions:  277000001 cycles:  604122767 heartbeat IPC: 0.51352 cumulative IPC: 0.32958 (Simulation time: 0 hr 9 min 53 sec) 
Heartbeat CPU  0 instructions:  278000000 cycles:  606428098 heartbeat IPC: 0.43378 cumulative IPC: 0.33002 (Simulation time: 0 hr 9 min 56 sec) 
Heartbeat CPU  0 instructions:  279000000 cycles:  610194766 heartbeat IPC: 0.26549 cumulative IPC: 0.32957 (Simulation time: 0 hr 9 min 59 sec) 
Heartbeat CPU  0 instructions:  280000000 cycles:  614912597 heartbeat IPC: 0.21196 cumulative IPC: 0.32856 (Simulation time: 0 hr 10 min 3 sec) 
Heartbeat CPU  0 instructions:  281000000 cycles:  616733269 heartbeat IPC: 0.54925 cumulative IPC: 0.32929 (Simulation time: 0 hr 10 min 5 sec) 
Heartbeat CPU  0 instructions:  282000000 cycles:  618302443 heartbeat IPC: 0.63728 cumulative IPC: 0.33017 (Simulation time: 0 hr 10 min 6 sec) 
Heartbeat CPU  0 instructions:  283000003 cycles:  621828142 heartbeat IPC: 0.28363 cumulative IPC: 0.32987 (Simulation time: 0 hr 10 min 8 sec) 
Heartbeat CPU  0 instructions:  284000000 cycles:  624672862 heartbeat IPC: 0.35153 cumulative IPC: 0.32998 (Simulation time: 0 hr 10 min 11 sec) 
Heartbeat CPU  0 instructions:  285000001 cycles:  628287322 heartbeat IPC: 0.27667 cumulative IPC: 0.32964 (Simulation time: 0 hr 10 min 14 sec) 
Heartbeat CPU  0 instructions:  286000000 cycles:  630507139 heartbeat IPC: 0.45049 cumulative IPC: 0.33012 (Simulation time: 0 hr 10 min 17 sec) 
Heartbeat CPU  0 instructions:  287000003 cycles:  632503241 heartbeat IPC: 0.50098 cumulative IPC: 0.33072 (Simulation time: 0 hr 10 min 20 sec) 
Heartbeat CPU  0 instructions:  288000000 cycles:  637189115 heartbeat IPC: 0.21341 cumulative IPC: 0.32976 (Simulation time: 0 hr 10 min 25 sec) 
Heartbeat CPU  0 instructions:  289000000 cycles:  641149195 heartbeat IPC: 0.25252 cumulative IPC: 0.32922 (Simulation time: 0 hr 10 min 28 sec) 
Heartbeat CPU  0 instructions:  290000000 cycles:  642949514 heartbeat IPC: 0.55546 cumulative IPC: 0.32993 (Simulation time: 0 hr 10 min 30 sec) 
Heartbeat CPU  0 instructions:  291000000 cycles:  644430620 heartbeat IPC: 0.67517 cumulative IPC: 0.33082 (Simulation time: 0 hr 10 min 32 sec) 
Heartbeat CPU  0 instructions:  292000000 cycles:  648782405 heartbeat IPC: 0.22979 cumulative IPC: 0.33006 (Simulation time: 0 hr 10 min 34 sec) 
Heartbeat CPU  0 instructions:  293000002 cycles:  651650759 heartbeat IPC: 0.34863 cumulative IPC: 0.33015 (Simulation time: 0 hr 10 min 37 sec) 
Heartbeat CPU  0 instructions:  294000001 cycles:  654395559 heartbeat IPC: 0.36432 cumulative IPC: 0.33031 (Simulation time: 0 hr 10 min 40 sec) 
Heartbeat CPU  0 instructions:  295000003 cycles:  657033175 heartbeat IPC: 0.37913 cumulative IPC: 0.33053 (Simulation time: 0 hr 10 min 42 sec) 
Heartbeat CPU  0 instructions:  296000000 cycles:  658622227 heartbeat IPC: 0.62930 cumulative IPC: 0.33133 (Simulation time: 0 hr 10 min 45 sec) 
Heartbeat CPU  0 instructions:  297000001 cycles:  664219027 heartbeat IPC: 0.17867 cumulative IPC: 0.32990 (Simulation time: 0 hr 10 min 52 sec) 
Heartbeat CPU  0 instructions:  298000000 cycles:  667336880 heartbeat IPC: 0.32073 cumulative IPC: 0.32985 (Simulation time: 0 hr 10 min 56 sec) 
Heartbeat CPU  0 instructions:  299000000 cycles:  669105976 heartbeat IPC: 0.56526 cumulative IPC: 0.33055 (Simulation time: 0 hr 10 min 58 sec) 
Heartbeat CPU  0 instructions:  300000000 cycles:  671208277 heartbeat IPC: 0.47567 cumulative IPC: 0.33105 (Simulation time: 0 hr 11 min 0 sec) 
Heartbeat CPU  0 instructions:  301000001 cycles:  674257372 heartbeat IPC: 0.32797 cumulative IPC: 0.33103 (Simulation time: 0 hr 11 min 3 sec) 
Heartbeat CPU  0 instructions:  302000001 cycles:  677826448 heartbeat IPC: 0.28018 cumulative IPC: 0.33074 (Simulation time: 0 hr 11 min 5 sec) 
Heartbeat CPU  0 instructions:  303000002 cycles:  680627025 heartbeat IPC: 0.35707 cumulative IPC: 0.33086 (Simulation time: 0 hr 11 min 8 sec) 
Heartbeat CPU  0 instructions:  304000000 cycles:  683306975 heartbeat IPC: 0.37314 cumulative IPC: 0.33104 (Simulation time: 0 hr 11 min 11 sec) 
Heartbeat CPU  0 instructions:  305000000 cycles:  685976693 heartbeat IPC: 0.37457 cumulative IPC: 0.33123 (Simulation time: 0 hr 11 min 13 sec) 
Heartbeat CPU  0 instructions:  306000003 cycles:  687655998 heartbeat IPC: 0.59549 cumulative IPC: 0.33194 (Simulation time: 0 hr 11 min 15 sec) 
Heartbeat CPU  0 instructions:  307000003 cycles:  693232297 heartbeat IPC: 0.17933 cumulative IPC: 0.33059 (Simulation time: 0 hr 11 min 20 sec) 
Heartbeat CPU  0 instructions:  308000000 cycles:  696228479 heartbeat IPC: 0.33376 cumulative IPC: 0.33060 (Simulation time: 0 hr 11 min 22 sec) 
Heartbeat CPU  0 instructions:  309000001 cycles:  697996383 heartbeat IPC: 0.56564 cumulative IPC: 0.33126 (Simulation time: 0 hr 11 min 23 sec) 
Heartbeat CPU  0 instructions:  310000001 cycles:  700160539 heartbeat IPC: 0.46207 cumulative IPC: 0.33171 (Simulation time: 0 hr 11 min 25 sec) 
Heartbeat CPU  0 instructions:  311000001 cycles:  703124992 heartbeat IPC: 0.33733 cumulative IPC: 0.33173 (Simulation time: 0 hr 11 min 28 sec) 
Heartbeat CPU  0 instructions:  312000000 cycles:  706848619 heartbeat IPC: 0.26856 cumulative IPC: 0.33136 (Simulation time: 0 hr 11 min 30 sec) 
Heartbeat CPU  0 instructions:  313000000 cycles:  709651697 heartbeat IPC: 0.35675 cumulative IPC: 0.33148 (Simulation time: 0 hr 11 min 33 sec) 
Heartbeat CPU  0 instructions:  314000003 cycles:  711969923 heartbeat IPC: 0.43137 cumulative IPC: 0.33183 (Simulation time: 0 hr 11 min 35 sec) 
Heartbeat CPU  0 instructions:  315000000 cycles:  716826618 heartbeat IPC: 0.20590 cumulative IPC: 0.33089 (Simulation time: 0 hr 11 min 38 sec) 
Heartbeat CPU  0 instructions:  316000000 cycles:  722648986 heartbeat IPC: 0.17175 cumulative IPC: 0.32948 (Simulation time: 0 hr 11 min 42 sec) 
Heartbeat CPU  0 instructions:  317000002 cycles:  726285738 heartbeat IPC: 0.27497 cumulative IPC: 0.32918 (Simulation time: 0 hr 11 min 45 sec) 
Heartbeat CPU  0 instructions:  318000001 cycles:  731069925 heartbeat IPC: 0.20902 cumulative IPC: 0.32831 (Simulation time: 0 hr 11 min 48 sec) 
Heartbeat CPU  0 instructions:  319000001 cycles:  734984788 heartbeat IPC: 0.25544 cumulative IPC: 0.32789 (Simulation time: 0 hr 11 min 52 sec) 
Heartbeat CPU  0 instructions:  320000000 cycles:  738250714 heartbeat IPC: 0.30619 cumulative IPC: 0.32778 (Simulation time: 0 hr 11 min 55 sec) 
Heartbeat CPU  0 instructions:  321000003 cycles:  742816033 heartbeat IPC: 0.21904 cumulative IPC: 0.32705 (Simulation time: 0 hr 11 min 58 sec) 
Heartbeat CPU  0 instructions:  322000001 cycles:  746801482 heartbeat IPC: 0.25091 cumulative IPC: 0.32660 (Simulation time: 0 hr 12 min 0 sec) 
Heartbeat CPU  0 instructions:  323000002 cycles:  750928656 heartbeat IPC: 0.24230 cumulative IPC: 0.32609 (Simulation time: 0 hr 12 min 3 sec) 
Heartbeat CPU  0 instructions:  324000000 cycles:  753798041 heartbeat IPC: 0.34851 cumulative IPC: 0.32618 (Simulation time: 0 hr 12 min 5 sec) 
Heartbeat CPU  0 instructions:  325000000 cycles:  756773576 heartbeat IPC: 0.33607 cumulative IPC: 0.32623 (Simulation time: 0 hr 12 min 8 sec) 
Heartbeat CPU  0 instructions:  326000002 cycles:  758843780 heartbeat IPC: 0.48305 cumulative IPC: 0.32670 (Simulation time: 0 hr 12 min 10 sec) 
Heartbeat CPU  0 instructions:  327000001 cycles:  760957871 heartbeat IPC: 0.47302 cumulative IPC: 0.32714 (Simulation time: 0 hr 12 min 13 sec) 
Heartbeat CPU  0 instructions:  328000000 cycles:  762139333 heartbeat IPC: 0.84641 cumulative IPC: 0.32803 (Simulation time: 0 hr 12 min 15 sec) 
Heartbeat CPU  0 instructions:  329000001 cycles:  764138961 heartbeat IPC: 0.50009 cumulative IPC: 0.32852 (Simulation time: 0 hr 12 min 18 sec) 
Heartbeat CPU  0 instructions:  330000000 cycles:  768079615 heartbeat IPC: 0.25376 cumulative IPC: 0.32810 (Simulation time: 0 hr 12 min 21 sec) 
Heartbeat CPU  0 instructions:  331000002 cycles:  770835922 heartbeat IPC: 0.36281 cumulative IPC: 0.32823 (Simulation time: 0 hr 12 min 24 sec) 
Heartbeat CPU  0 instructions:  332000000 cycles:  773218082 heartbeat IPC: 0.41979 cumulative IPC: 0.32854 (Simulation time: 0 hr 12 min 27 sec) 
Heartbeat CPU  0 instructions:  333000003 cycles:  775152858 heartbeat IPC: 0.51686 cumulative IPC: 0.32906 (Simulation time: 0 hr 12 min 29 sec) 
Heartbeat CPU  0 instructions:  334000000 cycles:  777460465 heartbeat IPC: 0.43335 cumulative IPC: 0.32940 (Simulation time: 0 hr 12 min 32 sec) 
Heartbeat CPU  0 instructions:  335000002 cycles:  781171021 heartbeat IPC: 0.26950 cumulative IPC: 0.32909 (Simulation time: 0 hr 12 min 35 sec) 
Heartbeat CPU  0 instructions:  336000000 cycles:  785892868 heartbeat IPC: 0.21178 cumulative IPC: 0.32831 (Simulation time: 0 hr 12 min 39 sec) 
Heartbeat CPU  0 instructions:  337000000 cycles:  787712984 heartbeat IPC: 0.54942 cumulative IPC: 0.32887 (Simulation time: 0 hr 12 min 41 sec) 
Heartbeat CPU  0 instructions:  338000000 cycles:  789276319 heartbeat IPC: 0.63966 cumulative IPC: 0.32955 (Simulation time: 0 hr 12 min 43 sec) 
Heartbeat CPU  0 instructions:  339000001 cycles:  792561044 heartbeat IPC: 0.30444 cumulative IPC: 0.32943 (Simulation time: 0 hr 12 min 45 sec) 
Heartbeat CPU  0 instructions:  340000000 cycles:  795074562 heartbeat IPC: 0.39785 cumulative IPC: 0.32967 (Simulation time: 0 hr 12 min 48 sec) 
Heartbeat CPU  0 instructions:  341000003 cycles:  798499155 heartbeat IPC: 0.29201 cumulative IPC: 0.32949 (Simulation time: 0 hr 12 min 50 sec) 
Heartbeat CPU  0 instructions:  342000001 cycles:  802099231 heartbeat IPC: 0.27777 cumulative IPC: 0.32924 (Simulation time: 0 hr 12 min 53 sec) 
Heartbeat CPU  0 instructions:  343000003 cycles:  804486085 heartbeat IPC: 0.41896 cumulative IPC: 0.32953 (Simulation time: 0 hr 12 min 56 sec) 
Heartbeat CPU  0 instructions:  344000000 cycles:  806380973 heartbeat IPC: 0.52773 cumulative IPC: 0.33004 (Simulation time: 0 hr 12 min 58 sec) 
Heartbeat CPU  0 instructions:  345000000 cycles:  811238695 heartbeat IPC: 0.20586 cumulative IPC: 0.32923 (Simulation time: 0 hr 13 min 2 sec) 
Heartbeat CPU  0 instructions:  346000000 cycles:  815011827 heartbeat IPC: 0.26503 cumulative IPC: 0.32890 (Simulation time: 0 hr 13 min 5 sec) 
Heartbeat CPU  0 instructions:  347000000 cycles:  816808915 heartbeat IPC: 0.55646 cumulative IPC: 0.32945 (Simulation time: 0 hr 13 min 7 sec) 
Heartbeat CPU  0 instructions:  348000000 cycles:  818337387 heartbeat IPC: 0.65425 cumulative IPC: 0.33011 (Simulation time: 0 hr 13 min 8 sec) 
Heartbeat CPU  0 instructions:  349000000 cycles:  822034589 heartbeat IPC: 0.27047 cumulative IPC: 0.32982 (Simulation time: 0 hr 13 min 11 sec) 
Heartbeat CPU  0 instructions:  350000000 cycles:  824890246 heartbeat IPC: 0.35018 cumulative IPC: 0.32989 (Simulation time: 0 hr 13 min 14 sec) 
Heartbeat CPU  0 instructions:  351000002 cycles:  827718163 heartbeat IPC: 0.35362 cumulative IPC: 0.32998 (Simulation time: 0 hr 13 min 16 sec) 
Heartbeat CPU  0 instructions:  352000000 cycles:  831027769 heartbeat IPC: 0.30215 cumulative IPC: 0.32986 (Simulation time: 0 hr 13 min 19 sec) 
Heartbeat CPU  0 instructions:  353000003 cycles:  833415115 heartbeat IPC: 0.41888 cumulative IPC: 0.33014 (Simulation time: 0 hr 13 min 22 sec) 
Heartbeat CPU  0 instructions:  354000001 cycles:  835258671 heartbeat IPC: 0.54243 cumulative IPC: 0.33065 (Simulation time: 0 hr 13 min 24 sec) 
Heartbeat CPU  0 instructions:  355000002 cycles:  840264199 heartbeat IPC: 0.19978 cumulative IPC: 0.32980 (Simulation time: 0 hr 13 min 29 sec) 
Heartbeat CPU  0 instructions:  356000000 cycles:  843929614 heartbeat IPC: 0.27282 cumulative IPC: 0.32953 (Simulation time: 0 hr 13 min 32 sec) 
Heartbeat CPU  0 instructions:  357000002 cycles:  845719789 heartbeat IPC: 0.55861 cumulative IPC: 0.33006 (Simulation time: 0 hr 13 min 33 sec) 
Heartbeat CPU  0 instructions:  358000000 cycles:  847336664 heartbeat IPC: 0.61848 cumulative IPC: 0.33066 (Simulation time: 0 hr 13 min 35 sec) 
Heartbeat CPU  0 instructions:  359000001 cycles:  850909551 heartbeat IPC: 0.27989 cumulative IPC: 0.33042 (Simulation time: 0 hr 13 min 38 sec) 
Heartbeat CPU  0 instructions:  360000000 cycles:  853893984 heartbeat IPC: 0.33507 cumulative IPC: 0.33044 (Simulation time: 0 hr 13 min 41 sec) 
Heartbeat CPU  0 instructions:  361000001 cycles:  856698804 heartbeat IPC: 0.35653 cumulative IPC: 0.33054 (Simulation time: 0 hr 13 min 44 sec) 
Heartbeat CPU  0 instructions:  362000000 cycles:  859867978 heartbeat IPC: 0.31554 cumulative IPC: 0.33048 (Simulation time: 0 hr 13 min 47 sec) 
Heartbeat CPU  0 instructions:  363000000 cycles:  862406765 heartbeat IPC: 0.39389 cumulative IPC: 0.33068 (Simulation time: 0 hr 13 min 50 sec) 
Heartbeat CPU  0 instructions:  364000000 cycles:  864124375 heartbeat IPC: 0.58220 cumulative IPC: 0.33122 (Simulation time: 0 hr 13 min 53 sec) 
Heartbeat CPU  0 instructions:  365000003 cycles:  869297631 heartbeat IPC: 0.19330 cumulative IPC: 0.33033 (Simulation time: 0 hr 13 min 58 sec) 
Heartbeat CPU  0 instructions:  366000000 cycles:  872870116 heartbeat IPC: 0.27992 cumulative IPC: 0.33011 (Simulation time: 0 hr 14 min 1 sec) 
Heartbeat CPU  0 instructions:  367000001 cycles:  874660454 heartbeat IPC: 0.55855 cumulative IPC: 0.33061 (Simulation time: 0 hr 14 min 3 sec) 
Heartbeat CPU  0 instructions:  368000000 cycles:  876385161 heartbeat IPC: 0.57981 cumulative IPC: 0.33114 (Simulation time: 0 hr 14 min 5 sec) 
Heartbeat CPU  0 instructions:  369000001 cycles:  879840421 heartbeat IPC: 0.28941 cumulative IPC: 0.33097 (Simulation time: 0 hr 14 min 8 sec) 
Heartbeat CPU  0 instructions:  370000003 cycles:  882896439 heartbeat IPC: 0.32722 cumulative IPC: 0.33095 (Simulation time: 0 hr 14 min 11 sec) 
Heartbeat CPU  0 instructions:  371000001 cycles:  885712260 heartbeat IPC: 0.35514 cumulative IPC: 0.33104 (Simulation time: 0 hr 14 min 14 sec) 
Heartbeat CPU  0 instructions:  372000000 cycles:  888779476 heartbeat IPC: 0.32603 cumulative IPC: 0.33102 (Simulation time: 0 hr 14 min 17 sec) 
Heartbeat CPU  0 instructions:  373000003 cycles:  891387087 heartbeat IPC: 0.38349 cumulative IPC: 0.33118 (Simulation time: 0 hr 14 min 20 sec) 
Heartbeat CPU  0 instructions:  374000001 cycles:  893025921 heartbeat IPC: 0.61019 cumulative IPC: 0.33174 (Simulation time: 0 hr 14 min 23 sec) 
Heartbeat CPU  0 instructions:  375000003 cycles:  898297788 heartbeat IPC: 0.18969 cumulative IPC: 0.33084 (Simulation time: 0 hr 14 min 27 sec) 
Heartbeat CPU  0 instructions:  376000000 cycles:  901746902 heartbeat IPC: 0.28993 cumulative IPC: 0.33067 (Simulation time: 0 hr 14 min 30 sec) 
Heartbeat CPU  0 instructions:  377000000 cycles:  903523199 heartbeat IPC: 0.56297 cumulative IPC: 0.33116 (Simulation time: 0 hr 14 min 32 sec) 
Heartbeat CPU  0 instructions:  378000003 cycles:  905364293 heartbeat IPC: 0.54316 cumulative IPC: 0.33163 (Simulation time: 0 hr 14 min 34 sec) 
Heartbeat CPU  0 instructions:  379000002 cycles:  908700612 heartbeat IPC: 0.29973 cumulative IPC: 0.33150 (Simulation time: 0 hr 14 min 37 sec) 
Heartbeat CPU  0 instructions:  380000000 cycles:  911844898 heartbeat IPC: 0.31804 cumulative IPC: 0.33145 (Simulation time: 0 hr 14 min 39 sec) 
Heartbeat CPU  0 instructions:  381000000 cycles:  914698263 heartbeat IPC: 0.35046 cumulative IPC: 0.33151 (Simulation time: 0 hr 14 min 42 sec) 
Heartbeat CPU  0 instructions:  382000003 cycles:  917634385 heartbeat IPC: 0.34059 cumulative IPC: 0.33154 (Simulation time: 0 hr 14 min 45 sec) 
Heartbeat CPU  0 instructions:  383000001 cycles:  920274906 heartbeat IPC: 0.37871 cumulative IPC: 0.33169 (Simulation time: 0 hr 14 min 48 sec) 
Heartbeat CPU  0 instructions:  384000000 cycles:  921865460 heartbeat IPC: 0.62871 cumulative IPC: 0.33224 (Simulation time: 0 hr 14 min 51 sec) 
Heartbeat CPU  0 instructions:  385000003 cycles:  927312279 heartbeat IPC: 0.18359 cumulative IPC: 0.33130 (Simulation time: 0 hr 14 min 56 sec) 
Heartbeat CPU  0 instructions:  386000002 cycles:  930622661 heartbeat IPC: 0.30208 cumulative IPC: 0.33119 (Simulation time: 0 hr 14 min 58 sec) 
Heartbeat CPU  0 instructions:  387000000 cycles:  932399721 heartbeat IPC: 0.56273 cumulative IPC: 0.33167 (Simulation time: 0 hr 15 min 0 sec) 
Heartbeat CPU  0 instructions:  388000000 cycles:  934353482 heartbeat IPC: 0.51183 cumulative IPC: 0.33207 (Simulation time: 0 hr 15 min 2 sec) 
Heartbeat CPU  0 instructions:  389000001 cycles:  937575143 heartbeat IPC: 0.31040 cumulative IPC: 0.33199 (Simulation time: 0 hr 15 min 5 sec) 
Heartbeat CPU  0 instructions:  390000002 cycles:  940890555 heartbeat IPC: 0.30162 cumulative IPC: 0.33188 (Simulation time: 0 hr 15 min 7 sec) 
Heartbeat CPU  0 instructions:  391000001 cycles:  943743634 heartbeat IPC: 0.35050 cumulative IPC: 0.33194 (Simulation time: 0 hr 15 min 10 sec) 
Heartbeat CPU  0 instructions:  392000000 cycles:  946581335 heartbeat IPC: 0.35240 cumulative IPC: 0.33200 (Simulation time: 0 hr 15 min 12 sec) 
Heartbeat CPU  0 instructions:  393000002 cycles:  949221544 heartbeat IPC: 0.37876 cumulative IPC: 0.33214 (Simulation time: 0 hr 15 min 15 sec) 
Heartbeat CPU  0 instructions:  394000002 cycles:  950766833 heartbeat IPC: 0.64713 cumulative IPC: 0.33269 (Simulation time: 0 hr 15 min 17 sec) 
Heartbeat CPU  0 instructions:  395000001 cycles:  956388712 heartbeat IPC: 0.17788 cumulative IPC: 0.33171 (Simulation time: 0 hr 15 min 21 sec) 
Heartbeat CPU  0 instructions:  396000000 cycles:  959583265 heartbeat IPC: 0.31303 cumulative IPC: 0.33165 (Simulation time: 0 hr 15 min 24 sec) 
Heartbeat CPU  0 instructions:  397000000 cycles:  961355554 heartbeat IPC: 0.56424 cumulative IPC: 0.33211 (Simulation time: 0 hr 15 min 26 sec) 
Heartbeat CPU  0 instructions:  398000000 cycles:  963407333 heartbeat IPC: 0.48738 cumulative IPC: 0.33246 (Simulation time: 0 hr 15 min 28 sec) 
Heartbeat CPU  0 instructions:  399000000 cycles:  966507147 heartbeat IPC: 0.32260 cumulative IPC: 0.33243 (Simulation time: 0 hr 15 min 31 sec) 
Heartbeat CPU  0 instructions:  400000000 cycles:  969991891 heartbeat IPC: 0.28697 cumulative IPC: 0.33225 (Simulation time: 0 hr 15 min 33 sec) 
Heartbeat CPU  0 instructions:  401000000 cycles:  972849410 heartbeat IPC: 0.34995 cumulative IPC: 0.33231 (Simulation time: 0 hr 15 min 36 sec) 
Heartbeat CPU  0 instructions:  402000000 cycles:  975567761 heartbeat IPC: 0.36787 cumulative IPC: 0.33242 (Simulation time: 0 hr 15 min 39 sec) 
Heartbeat CPU  0 instructions:  403000000 cycles:  978229648 heartbeat IPC: 0.37567 cumulative IPC: 0.33254 (Simulation time: 0 hr 15 min 42 sec) 
Heartbeat CPU  0 instructions:  404000000 cycles:  979869034 heartbeat IPC: 0.60998 cumulative IPC: 0.33304 (Simulation time: 0 hr 15 min 46 sec) 
Heartbeat CPU  0 instructions:  405000002 cycles:  985460611 heartbeat IPC: 0.17884 cumulative IPC: 0.33210 (Simulation time: 0 hr 15 min 51 sec) 
Heartbeat CPU  0 instructions:  406000000 cycles:  988532566 heartbeat IPC: 0.32552 cumulative IPC: 0.33208 (Simulation time: 0 hr 15 min 53 sec) 
Heartbeat CPU  0 instructions:  407000000 cycles:  990297435 heartbeat IPC: 0.56661 cumulative IPC: 0.33253 (Simulation time: 0 hr 15 min 55 sec) 
Heartbeat CPU  0 instructions:  408000000 cycles:  992427160 heartbeat IPC: 0.46954 cumulative IPC: 0.33284 (Simulation time: 0 hr 15 min 57 sec) 
Heartbeat CPU  0 instructions:  409000002 cycles:  995418869 heartbeat IPC: 0.33426 cumulative IPC: 0.33285 (Simulation time: 0 hr 16 min 0 sec) 
Heartbeat CPU  0 instructions:  410000000 cycles:  999065248 heartbeat IPC: 0.27424 cumulative IPC: 0.33262 (Simulation time: 0 hr 16 min 2 sec) 
Heartbeat CPU  0 instructions:  411000002 cycles: 1001877887 heartbeat IPC: 0.35554 cumulative IPC: 0.33269 (Simulation time: 0 hr 16 min 5 sec) 
Heartbeat CPU  0 instructions:  412000000 cycles: 1004514251 heartbeat IPC: 0.37931 cumulative IPC: 0.33282 (Simulation time: 0 hr 16 min 8 sec) 
Heartbeat CPU  0 instructions:  413000001 cycles: 1007192471 heartbeat IPC: 0.37338 cumulative IPC: 0.33294 (Simulation time: 0 hr 16 min 11 sec) 
Heartbeat CPU  0 instructions:  414000000 cycles: 1008926512 heartbeat IPC: 0.57669 cumulative IPC: 0.33338 (Simulation time: 0 hr 16 min 13 sec) 
Heartbeat CPU  0 instructions:  415000002 cycles: 1014503990 heartbeat IPC: 0.17929 cumulative IPC: 0.33248 (Simulation time: 0 hr 16 min 17 sec) 
Heartbeat CPU  0 instructions:  416000000 cycles: 1017429324 heartbeat IPC: 0.34184 cumulative IPC: 0.33251 (Simulation time: 0 hr 16 min 19 sec) 
Heartbeat CPU  0 instructions:  417000000 cycles: 1019180715 heartbeat IPC: 0.57097 cumulative IPC: 0.33294 (Simulation time: 0 hr 16 min 21 sec) 
Heartbeat CPU  0 instructions:  418000000 cycles: 1021381183 heartbeat IPC: 0.45445 cumulative IPC: 0.33322 (Simulation time: 0 hr 16 min 23 sec) 
Heartbeat CPU  0 instructions:  419000001 cycles: 1024286803 heartbeat IPC: 0.34416 cumulative IPC: 0.33326 (Simulation time: 0 hr 16 min 26 sec) 
Heartbeat CPU  0 instructions:  420000000 cycles: 1028107329 heartbeat IPC: 0.26174 cumulative IPC: 0.33297 (Simulation time: 0 hr 16 min 29 sec) 
Heartbeat CPU  0 instructions:  421000000 cycles: 1030872541 heartbeat IPC: 0.36164 cumulative IPC: 0.33306 (Simulation time: 0 hr 16 min 32 sec) 
Heartbeat CPU  0 instructions:  422000003 cycles: 1033418080 heartbeat IPC: 0.39285 cumulative IPC: 0.33321 (Simulation time: 0 hr 16 min 35 sec) 
Heartbeat CPU  0 instructions:  423000003 cycles: 1036100709 heartbeat IPC: 0.37277 cumulative IPC: 0.33332 (Simulation time: 0 hr 16 min 38 sec) 
Heartbeat CPU  0 instructions:  424000000 cycles: 1037924266 heartbeat IPC: 0.54838 cumulative IPC: 0.33373 (Simulation time: 0 hr 16 min 40 sec) 
Heartbeat CPU  0 instructions:  425000000 cycles: 1043509070 heartbeat IPC: 0.17906 cumulative IPC: 0.33284 (Simulation time: 0 hr 16 min 45 sec) 
Heartbeat CPU  0 instructions:  426000002 cycles: 1046324865 heartbeat IPC: 0.35514 cumulative IPC: 0.33291 (Simulation time: 0 hr 16 min 47 sec) 
Heartbeat CPU  0 instructions:  427000002 cycles: 1048067743 heartbeat IPC: 0.57376 cumulative IPC: 0.33333 (Simulation time: 0 hr 16 min 48 sec) 
Heartbeat CPU  0 instructions:  428000000 cycles: 1050323244 heartbeat IPC: 0.44336 cumulative IPC: 0.33359 (Simulation time: 0 hr 16 min 50 sec) 
Heartbeat CPU  0 instructions:  429000001 cycles: 1053146799 heartbeat IPC: 0.35416 cumulative IPC: 0.33365 (Simulation time: 0 hr 16 min 53 sec) 
Heartbeat CPU  0 instructions:  430000002 cycles: 1057083487 heartbeat IPC: 0.25402 cumulative IPC: 0.33333 (Simulation time: 0 hr 16 min 56 sec) 
Heartbeat CPU  0 instructions:  431000003 cycles: 1059806902 heartbeat IPC: 0.36719 cumulative IPC: 0.33342 (Simulation time: 0 hr 16 min 59 sec) 
Heartbeat CPU  0 instructions:  432000000 cycles: 1061967395 heartbeat IPC: 0.46286 cumulative IPC: 0.33370 (Simulation time: 0 hr 17 min 2 sec) 
Heartbeat CPU  0 instructions:  433000002 cycles: 1067275598 heartbeat IPC: 0.18839 cumulative IPC: 0.33293 (Simulation time: 0 hr 17 min 5 sec) 
Heartbeat CPU  0 instructions:  434000000 cycles: 1072676160 heartbeat IPC: 0.18517 cumulative IPC: 0.33214 (Simulation time: 0 hr 17 min 9 sec) 
Heartbeat CPU  0 instructions:  435000001 cycles: 1076419445 heartbeat IPC: 0.26715 cumulative IPC: 0.33190 (Simulation time: 0 hr 17 min 12 sec) 
Heartbeat CPU  0 instructions:  436000000 cycles: 1081266821 heartbeat IPC: 0.20630 cumulative IPC: 0.33130 (Simulation time: 0 hr 17 min 16 sec) 
Heartbeat CPU  0 instructions:  437000003 cycles: 1085079193 heartbeat IPC: 0.26230 cumulative IPC: 0.33104 (Simulation time: 0 hr 17 min 20 sec) 
Heartbeat CPU  0 instructions:  438000002 cycles: 1088360571 heartbeat IPC: 0.30475 cumulative IPC: 0.33095 (Simulation time: 0 hr 17 min 23 sec) 
Heartbeat CPU  0 instructions:  439000000 cycles: 1092981432 heartbeat IPC: 0.21641 cumulative IPC: 0.33044 (Simulation time: 0 hr 17 min 26 sec) 
Heartbeat CPU  0 instructions:  440000000 cycles: 1096989953 heartbeat IPC: 0.24947 cumulative IPC: 0.33012 (Simulation time: 0 hr 17 min 29 sec) 
Heartbeat CPU  0 instructions:  441000000 cycles: 1101065050 heartbeat IPC: 0.24539 cumulative IPC: 0.32979 (Simulation time: 0 hr 17 min 32 sec) 
Heartbeat CPU  0 instructions:  442000000 cycles: 1103905433 heartbeat IPC: 0.35207 cumulative IPC: 0.32985 (Simulation time: 0 hr 17 min 34 sec) 
Heartbeat CPU  0 instructions:  443000002 cycles: 1106877968 heartbeat IPC: 0.33641 cumulative IPC: 0.32987 (Simulation time: 0 hr 17 min 37 sec) 
Heartbeat CPU  0 instructions:  444000000 cycles: 1108870668 heartbeat IPC: 0.50183 cumulative IPC: 0.33020 (Simulation time: 0 hr 17 min 39 sec) 
Heartbeat CPU  0 instructions:  445000002 cycles: 1111012644 heartbeat IPC: 0.46686 cumulative IPC: 0.33048 (Simulation time: 0 hr 17 min 42 sec) 
Heartbeat CPU  0 instructions:  446000001 cycles: 1112255862 heartbeat IPC: 0.80436 cumulative IPC: 0.33104 (Simulation time: 0 hr 17 min 45 sec) 
Heartbeat CPU  0 instructions:  447000001 cycles: 1114186128 heartbeat IPC: 0.51806 cumulative IPC: 0.33139 (Simulation time: 0 hr 17 min 48 sec) 
Heartbeat CPU  0 instructions:  448000000 cycles: 1118165305 heartbeat IPC: 0.25131 cumulative IPC: 0.33108 (Simulation time: 0 hr 17 min 52 sec) 
Heartbeat CPU  0 instructions:  449000003 cycles: 1120956819 heartbeat IPC: 0.35823 cumulative IPC: 0.33116 (Simulation time: 0 hr 17 min 55 sec) 
Heartbeat CPU  0 instructions:  450000000 cycles: 1123263878 heartbeat IPC: 0.43345 cumulative IPC: 0.33138 (Simulation time: 0 hr 17 min 58 sec) 
Heartbeat CPU  0 instructions:  451000003 cycles: 1125239986 heartbeat IPC: 0.50605 cumulative IPC: 0.33170 (Simulation time: 0 hr 18 min 1 sec) 
Heartbeat CPU  0 instructions:  452000000 cycles: 1127499741 heartbeat IPC: 0.44252 cumulative IPC: 0.33194 (Simulation time: 0 hr 18 min 3 sec) 
Heartbeat CPU  0 instructions:  453000000 cycles: 1131388372 heartbeat IPC: 0.25716 cumulative IPC: 0.33167 (Simulation time: 0 hr 18 min 7 sec) 
Heartbeat CPU  0 instructions:  454000000 cycles: 1135940846 heartbeat IPC: 0.21966 cumulative IPC: 0.33119 (Simulation time: 0 hr 18 min 11 sec) 
Heartbeat CPU  0 instructions:  455000000 cycles: 1137759152 heartbeat IPC: 0.54996 cumulative IPC: 0.33156 (Simulation time: 0 hr 18 min 12 sec) 
Heartbeat CPU  0 instructions:  456000000 cycles: 1139311297 heartbeat IPC: 0.64427 cumulative IPC: 0.33201 (Simulation time: 0 hr 18 min 14 sec) 
Heartbeat CPU  0 instructions:  457000002 cycles: 1142650953 heartbeat IPC: 0.29943 cumulative IPC: 0.33191 (Simulation time: 0 hr 18 min 17 sec) 
Heartbeat CPU  0 instructions:  458000002 cycles: 1145239881 heartbeat IPC: 0.38626 cumulative IPC: 0.33204 (Simulation time: 0 hr 18 min 19 sec) 
Heartbeat CPU  0 instructions:  459000000 cycles: 1148516910 heartbeat IPC: 0.30515 cumulative IPC: 0.33196 (Simulation time: 0 hr 18 min 22 sec) 
Heartbeat CPU  0 instructions:  460000000 cycles: 1152181593 heartbeat IPC: 0.27287 cumulative IPC: 0.33176 (Simulation time: 0 hr 18 min 25 sec) 
Heartbeat CPU  0 instructions:  461000001 cycles: 1154585383 heartbeat IPC: 0.41601 cumulative IPC: 0.33195 (Simulation time: 0 hr 18 min 28 sec) 
Heartbeat CPU  0 instructions:  462000001 cycles: 1156380109 heartbeat IPC: 0.55719 cumulative IPC: 0.33232 (Simulation time: 0 hr 18 min 30 sec) 
Heartbeat CPU  0 instructions:  463000000 cycles: 1161408539 heartbeat IPC: 0.19887 cumulative IPC: 0.33171 (Simulation time: 0 hr 18 min 34 sec) 
Heartbeat CPU  0 instructions:  464000000 cycles: 1165047360 heartbeat IPC: 0.27481 cumulative IPC: 0.33152 (Simulation time: 0 hr 18 min 37 sec) 
Heartbeat CPU  0 instructions:  465000002 cycles: 1166843098 heartbeat IPC: 0.55688 cumulative IPC: 0.33189 (Simulation time: 0 hr 18 min 39 sec) 
Heartbeat CPU  0 instructions:  466000002 cycles: 1168482632 heartbeat IPC: 0.60993 cumulative IPC: 0.33230 (Simulation time: 0 hr 18 min 40 sec) 
Heartbeat CPU  0 instructions:  467000003 cycles: 1172026725 heartbeat IPC: 0.28216 cumulative IPC: 0.33214 (Simulation time: 0 hr 18 min 43 sec) 
Heartbeat CPU  0 instructions:  468000000 cycles: 1175036658 heartbeat IPC: 0.33223 cumulative IPC: 0.33214 (Simulation time: 0 hr 18 min 46 sec) 
Heartbeat CPU  0 instructions:  469000000 cycles: 1177841132 heartbeat IPC: 0.35657 cumulative IPC: 0.33220 (Simulation time: 0 hr 18 min 48 sec) 
Heartbeat CPU  0 instructions:  470000000 cycles: 1181003183 heartbeat IPC: 0.31625 cumulative IPC: 0.33216 (Simulation time: 0 hr 18 min 51 sec) 
Heartbeat CPU  0 instructions:  471000001 cycles: 1183568258 heartbeat IPC: 0.38985 cumulative IPC: 0.33229 (Simulation time: 0 hr 18 min 54 sec) 
Heartbeat CPU  0 instructions:  472000000 cycles: 1185249412 heartbeat IPC: 0.59483 cumulative IPC: 0.33268 (Simulation time: 0 hr 18 min 56 sec) 
Heartbeat CPU  0 instructions:  473000003 cycles: 1190425947 heartbeat IPC: 0.19318 cumulative IPC: 0.33204 (Simulation time: 0 hr 19 min 1 sec) 
Heartbeat CPU  0 instructions:  474000001 cycles: 1193961099 heartbeat IPC: 0.28287 cumulative IPC: 0.33189 (Simulation time: 0 hr 19 min 5 sec) 
Heartbeat CPU  0 instructions:  475000000 cycles: 1195747389 heartbeat IPC: 0.55982 cumulative IPC: 0.33225 (Simulation time: 0 hr 19 min 6 sec) 
Heartbeat CPU  0 instructions:  476000000 cycles: 1197504364 heartbeat IPC: 0.56916 cumulative IPC: 0.33262 (Simulation time: 0 hr 19 min 8 sec) 
Heartbeat CPU  0 instructions:  477000003 cycles: 1200943624 heartbeat IPC: 0.29076 cumulative IPC: 0.33249 (Simulation time: 0 hr 19 min 11 sec) 
Heartbeat CPU  0 instructions:  478000000 cycles: 1204016846 heartbeat IPC: 0.32539 cumulative IPC: 0.33247 (Simulation time: 0 hr 19 min 14 sec) 
Heartbeat CPU  0 instructions:  479000001 cycles: 1206876669 heartbeat IPC: 0.34967 cumulative IPC: 0.33251 (Simulation time: 0 hr 19 min 17 sec) 
Heartbeat CPU  0 instructions:  480000000 cycles: 1209889358 heartbeat IPC: 0.33193 cumulative IPC: 0.33251 (Simulation time: 0 hr 19 min 20 sec) 
Heartbeat CPU  0 instructions:  481000002 cycles: 1212520443 heartbeat IPC: 0.38007 cumulative IPC: 0.33262 (Simulation time: 0 hr 19 min 24 sec) 
Heartbeat CPU  0 instructions:  482000003 cycles: 1214138938 heartbeat IPC: 0.61786 cumulative IPC: 0.33302 (Simulation time: 0 hr 19 min 26 sec) 
Heartbeat CPU  0 instructions:  483000001 cycles: 1219499817 heartbeat IPC: 0.18654 cumulative IPC: 0.33234 (Simulation time: 0 hr 19 min 31 sec) 
Heartbeat CPU  0 instructions:  484000000 cycles: 1222911003 heartbeat IPC: 0.29315 cumulative IPC: 0.33223 (Simulation time: 0 hr 19 min 33 sec) 
Heartbeat CPU  0 instructions:  485000000 cycles: 1224687906 heartbeat IPC: 0.56278 cumulative IPC: 0.33258 (Simulation time: 0 hr 19 min 35 sec) 
Heartbeat CPU  0 instructions:  486000003 cycles: 1226571393 heartbeat IPC: 0.53093 cumulative IPC: 0.33290 (Simulation time: 0 hr 19 min 37 sec) 
Heartbeat CPU  0 instructions:  487000000 cycles: 1229864543 heartbeat IPC: 0.30366 cumulative IPC: 0.33282 (Simulation time: 0 hr 19 min 40 sec) 
Heartbeat CPU  0 instructions:  488000000 cycles: 1233097106 heartbeat IPC: 0.30935 cumulative IPC: 0.33275 (Simulation time: 0 hr 19 min 42 sec) 
Heartbeat CPU  0 instructions:  489000000 cycles: 1235967790 heartbeat IPC: 0.34835 cumulative IPC: 0.33279 (Simulation time: 0 hr 19 min 45 sec) 
Heartbeat CPU  0 instructions:  490000002 cycles: 1238841609 heartbeat IPC: 0.34797 cumulative IPC: 0.33283 (Simulation time: 0 hr 19 min 49 sec) 
Heartbeat CPU  0 instructions:  491000002 cycles: 1241471582 heartbeat IPC: 0.38023 cumulative IPC: 0.33294 (Simulation time: 0 hr 19 min 51 sec) 
Heartbeat CPU  0 instructions:  492000000 cycles: 1243049897 heartbeat IPC: 0.63359 cumulative IPC: 0.33334 (Simulation time: 0 hr 19 min 54 sec) 
Heartbeat CPU  0 instructions:  493000003 cycles: 1248571758 heartbeat IPC: 0.18110 cumulative IPC: 0.33263 (Simulation time: 0 hr 19 min 59 sec) 
Heartbeat CPU  0 instructions:  494000000 cycles: 1251827053 heartbeat IPC: 0.30719 cumulative IPC: 0.33256 (Simulation time: 0 hr 20 min 2 sec) 
Heartbeat CPU  0 instructions:  495000000 cycles: 1253599639 heartbeat IPC: 0.56415 cumulative IPC: 0.33290 (Simulation time: 0 hr 20 min 3 sec) 
Heartbeat CPU  0 instructions:  496000000 cycles: 1255587237 heartbeat IPC: 0.50312 cumulative IPC: 0.33319 (Simulation time: 0 hr 20 min 5 sec) 
Heartbeat CPU  0 instructions:  497000000 cycles: 1258751854 heartbeat IPC: 0.31599 cumulative IPC: 0.33314 (Simulation time: 0 hr 20 min 8 sec) 
Heartbeat CPU  0 instructions:  498000000 cycles: 1262134767 heartbeat IPC: 0.29560 cumulative IPC: 0.33304 (Simulation time: 0 hr 20 min 11 sec) 
Heartbeat CPU  0 instructions:  499000002 cycles: 1264993824 heartbeat IPC: 0.34977 cumulative IPC: 0.33308 (Simulation time: 0 hr 20 min 14 sec) 
Heartbeat CPU  0 instructions:  500000000 cycles: 1267766706 heartbeat IPC: 0.36063 cumulative IPC: 0.33314 (Simulation time: 0 hr 20 min 17 sec) 
Heartbeat CPU  0 instructions:  501000000 cycles: 1270409618 heartbeat IPC: 0.37837 cumulative IPC: 0.33324 (Simulation time: 0 hr 20 min 21 sec) 
Heartbeat CPU  0 instructions:  502000003 cycles: 1271979845 heartbeat IPC: 0.63685 cumulative IPC: 0.33364 (Simulation time: 0 hr 20 min 23 sec) 
Heartbeat CPU  0 instructions:  503000003 cycles: 1277587131 heartbeat IPC: 0.17834 cumulative IPC: 0.33292 (Simulation time: 0 hr 20 min 28 sec) 
Heartbeat CPU  0 instructions:  504000000 cycles: 1280714573 heartbeat IPC: 0.31975 cumulative IPC: 0.33288 (Simulation time: 0 hr 20 min 31 sec) 
Heartbeat CPU  0 instructions:  505000000 cycles: 1282483820 heartbeat IPC: 0.56521 cumulative IPC: 0.33322 (Simulation time: 0 hr 20 min 32 sec) 
Heartbeat CPU  0 instructions:  506000000 cycles: 1284568932 heartbeat IPC: 0.47959 cumulative IPC: 0.33347 (Simulation time: 0 hr 20 min 34 sec) 
Heartbeat CPU  0 instructions:  507000002 cycles: 1287629338 heartbeat IPC: 0.32675 cumulative IPC: 0.33345 (Simulation time: 0 hr 20 min 37 sec) 
Heartbeat CPU  0 instructions:  508000000 cycles: 1291195006 heartbeat IPC: 0.28045 cumulative IPC: 0.33330 (Simulation time: 0 hr 20 min 41 sec) 
Heartbeat CPU  0 instructions:  509000001 cycles: 1293997065 heartbeat IPC: 0.35688 cumulative IPC: 0.33335 (Simulation time: 0 hr 20 min 44 sec) 
Heartbeat CPU  0 instructions:  510000003 cycles: 1296676791 heartbeat IPC: 0.37317 cumulative IPC: 0.33344 (Simulation time: 0 hr 20 min 46 sec) 
Heartbeat CPU  0 instructions:  511000000 cycles: 1299348620 heartbeat IPC: 0.37427 cumulative IPC: 0.33353 (Simulation time: 0 hr 20 min 49 sec) 
Heartbeat CPU  0 instructions:  512000000 cycles: 1301030729 heartbeat IPC: 0.59449 cumulative IPC: 0.33388 (Simulation time: 0 hr 20 min 52 sec) 
Heartbeat CPU  0 instructions:  513000001 cycles: 1306608029 heartbeat IPC: 0.17930 cumulative IPC: 0.33319 (Simulation time: 0 hr 20 min 56 sec) 
Heartbeat CPU  0 instructions:  514000000 cycles: 1309615248 heartbeat IPC: 0.33253 cumulative IPC: 0.33319 (Simulation time: 0 hr 20 min 59 sec) 
Heartbeat CPU  0 instructions:  515000001 cycles: 1311371725 heartbeat IPC: 0.56932 cumulative IPC: 0.33352 (Simulation time: 0 hr 21 min 0 sec) 
Heartbeat CPU  0 instructions:  516000000 cycles: 1313526268 heartbeat IPC: 0.46414 cumulative IPC: 0.33375 (Simulation time: 0 hr 21 min 2 sec) 
Heartbeat CPU  0 instructions:  517000001 cycles: 1316477542 heartbeat IPC: 0.33884 cumulative IPC: 0.33376 (Simulation time: 0 hr 21 min 5 sec) 
Heartbeat CPU  0 instructions:  518000000 cycles: 1320192973 heartbeat IPC: 0.26915 cumulative IPC: 0.33357 (Simulation time: 0 hr 21 min 8 sec) 
Heartbeat CPU  0 instructions:  519000002 cycles: 1322985633 heartbeat IPC: 0.35808 cumulative IPC: 0.33362 (Simulation time: 0 hr 21 min 10 sec) 
Heartbeat CPU  0 instructions:  520000000 cycles: 1325559514 heartbeat IPC: 0.38852 cumulative IPC: 0.33373 (Simulation time: 0 hr 21 min 13 sec) 
Heartbeat CPU  0 instructions:  521000000 cycles: 1328245416 heartbeat IPC: 0.37231 cumulative IPC: 0.33382 (Simulation time: 0 hr 21 min 16 sec) 
Heartbeat CPU  0 instructions:  522000002 cycles: 1330025353 heartbeat IPC: 0.56182 cumulative IPC: 0.33414 (Simulation time: 0 hr 21 min 18 sec) 
Heartbeat CPU  0 instructions:  523000003 cycles: 1335601680 heartbeat IPC: 0.17933 cumulative IPC: 0.33346 (Simulation time: 0 hr 21 min 23 sec) 
Heartbeat CPU  0 instructions:  524000000 cycles: 1338472468 heartbeat IPC: 0.34834 cumulative IPC: 0.33349 (Simulation time: 0 hr 21 min 25 sec) 
Heartbeat CPU  0 instructions:  525000003 cycles: 1340226657 heartbeat IPC: 0.57007 cumulative IPC: 0.33382 (Simulation time: 0 hr 21 min 27 sec) 
Heartbeat CPU  0 instructions:  526000002 cycles: 1342454071 heartbeat IPC: 0.44895 cumulative IPC: 0.33402 (Simulation time: 0 hr 21 min 29 sec) 
Heartbeat CPU  0 instructions:  527000001 cycles: 1345321219 heartbeat IPC: 0.34878 cumulative IPC: 0.33405 (Simulation time: 0 hr 21 min 32 sec) 
Heartbeat CPU  0 instructions:  528000000 cycles: 1349203005 heartbeat IPC: 0.25761 cumulative IPC: 0.33382 (Simulation time: 0 hr 21 min 35 sec) 
Heartbeat CPU  0 instructions:  529000001 cycles: 1351958873 heartbeat IPC: 0.36286 cumulative IPC: 0.33388 (Simulation time: 0 hr 21 min 38 sec) 
Heartbeat CPU  0 instructions:  530000001 cycles: 1354489070 heartbeat IPC: 0.39523 cumulative IPC: 0.33400 (Simulation time: 0 hr 21 min 41 sec) 
Heartbeat CPU  0 instructions:  531000000 cycles: 1357155192 heartbeat IPC: 0.37508 cumulative IPC: 0.33409 (Simulation time: 0 hr 21 min 43 sec) 
Heartbeat CPU  0 instructions:  532000000 cycles: 1359036193 heartbeat IPC: 0.53163 cumulative IPC: 0.33437 (Simulation time: 0 hr 21 min 46 sec) 
Heartbeat CPU  0 instructions:  533000000 cycles: 1364639070 heartbeat IPC: 0.17848 cumulative IPC: 0.33370 (Simulation time: 0 hr 21 min 50 sec) 
Heartbeat CPU  0 instructions:  534000001 cycles: 1367384860 heartbeat IPC: 0.36419 cumulative IPC: 0.33377 (Simulation time: 0 hr 21 min 53 sec) 
Heartbeat CPU  0 instructions:  535000003 cycles: 1369132467 heartbeat IPC: 0.57221 cumulative IPC: 0.33409 (Simulation time: 0 hr 21 min 54 sec) 
Heartbeat CPU  0 instructions:  536000000 cycles: 1371428767 heartbeat IPC: 0.43548 cumulative IPC: 0.33426 (Simulation time: 0 hr 21 min 56 sec) 
Heartbeat CPU  0 instructions:  537000001 cycles: 1374193201 heartbeat IPC: 0.36174 cumulative IPC: 0.33432 (Simulation time: 0 hr 21 min 59 sec) 
Heartbeat CPU  0 instructions:  538000002 cycles: 1378212698 heartbeat IPC: 0.24879 cumulative IPC: 0.33406 (Simulation time: 0 hr 22 min 2 sec) 
Heartbeat CPU  0 instructions:  539000000 cycles: 1380883096 heartbeat IPC: 0.37448 cumulative IPC: 0.33414 (Simulation time: 0 hr 22 min 4 sec) 
Heartbeat CPU  0 instructions:  540000000 cycles: 1383403051 heartbeat IPC: 0.39683 cumulative IPC: 0.33426 (Simulation time: 0 hr 22 min 7 sec) 
Heartbeat CPU  0 instructions:  541000002 cycles: 1386083216 heartbeat IPC: 0.37311 cumulative IPC: 0.33434 (Simulation time: 0 hr 22 min 10 sec) 
Heartbeat CPU  0 instructions:  542000002 cycles: 1388022064 heartbeat IPC: 0.51577 cumulative IPC: 0.33461 (Simulation time: 0 hr 22 min 13 sec) 
Heartbeat CPU  0 instructions:  543000002 cycles: 1393633787 heartbeat IPC: 0.17820 cumulative IPC: 0.33395 (Simulation time: 0 hr 22 min 18 sec) 
Heartbeat CPU  0 instructions:  544000000 cycles: 1396262465 heartbeat IPC: 0.38042 cumulative IPC: 0.33404 (Simulation time: 0 hr 22 min 20 sec) 
Heartbeat CPU  0 instructions:  545000000 cycles: 1397993545 heartbeat IPC: 0.57767 cumulative IPC: 0.33435 (Simulation time: 0 hr 22 min 21 sec) 
Heartbeat CPU  0 instructions:  546000002 cycles: 1400357994 heartbeat IPC: 0.42293 cumulative IPC: 0.33451 (Simulation time: 0 hr 22 min 24 sec) 
Heartbeat CPU  0 instructions:  547000001 cycles: 1403031846 heartbeat IPC: 0.37399 cumulative IPC: 0.33459 (Simulation time: 0 hr 22 min 26 sec) 
Heartbeat CPU  0 instructions:  548000000 cycles: 1407129989 heartbeat IPC: 0.24401 cumulative IPC: 0.33431 (Simulation time: 0 hr 22 min 29 sec) 
Heartbeat CPU  0 instructions:  549000001 cycles: 1409829075 heartbeat IPC: 0.37050 cumulative IPC: 0.33439 (Simulation time: 0 hr 22 min 32 sec) 
Heartbeat CPU  0 instructions:  550000001 cycles: 1411848698 heartbeat IPC: 0.49514 cumulative IPC: 0.33463 (Simulation time: 0 hr 22 min 34 sec) 
Heartbeat CPU  0 instructions:  551000000 cycles: 1417558350 heartbeat IPC: 0.17514 cumulative IPC: 0.33395 (Simulation time: 0 hr 22 min 38 sec) 
Heartbeat CPU  0 instructions:  552000000 cycles: 1422597299 heartbeat IPC: 0.19845 cumulative IPC: 0.33345 (Simulation time: 0 hr 22 min 41 sec) 
Heartbeat CPU  0 instructions:  553000000 cycles: 1426471495 heartbeat IPC: 0.25812 cumulative IPC: 0.33323 (Simulation time: 0 hr 22 min 45 sec) 
Heartbeat CPU  0 instructions:  554000003 cycles: 1431367918 heartbeat IPC: 0.20423 cumulative IPC: 0.33277 (Simulation time: 0 hr 22 min 48 sec) 
Heartbeat CPU  0 instructions:  555000003 cycles: 1435061035 heartbeat IPC: 0.27077 cumulative IPC: 0.33260 (Simulation time: 0 hr 22 min 52 sec) 
Heartbeat CPU  0 instructions:  556000000 cycles: 1438395874 heartbeat IPC: 0.29986 cumulative IPC: 0.33253 (Simulation time: 0 hr 22 min 55 sec) 
Heartbeat CPU  0 instructions:  557000000 cycles: 1443064090 heartbeat IPC: 0.21421 cumulative IPC: 0.33212 (Simulation time: 0 hr 22 min 58 sec) 
Heartbeat CPU  0 instructions:  558000001 cycles: 1447070765 heartbeat IPC: 0.24958 cumulative IPC: 0.33188 (Simulation time: 0 hr 23 min 1 sec) 
Heartbeat CPU  0 instructions:  559000000 cycles: 1451108699 heartbeat IPC: 0.24765 cumulative IPC: 0.33164 (Simulation time: 0 hr 23 min 4 sec) 
Heartbeat CPU  0 instructions:  560000000 cycles: 1453913764 heartbeat IPC: 0.35650 cumulative IPC: 0.33169 (Simulation time: 0 hr 23 min 6 sec) 
Heartbeat CPU  0 instructions:  561000001 cycles: 1456889900 heartbeat IPC: 0.33601 cumulative IPC: 0.33170 (Simulation time: 0 hr 23 min 9 sec) 
Heartbeat CPU  0 instructions:  562000000 cycles: 1458877998 heartbeat IPC: 0.50299 cumulative IPC: 0.33194 (Simulation time: 0 hr 23 min 11 sec) 
Heartbeat CPU  0 instructions:  563000002 cycles: 1460920351 heartbeat IPC: 0.48963 cumulative IPC: 0.33217 (Simulation time: 0 hr 23 min 14 sec) 
Heartbeat CPU  0 instructions:  564000000 cycles: 1462246860 heartbeat IPC: 0.75386 cumulative IPC: 0.33257 (Simulation time: 0 hr 23 min 16 sec) 
Heartbeat CPU  0 instructions:  565000002 cycles: 1464202700 heartbeat IPC: 0.51129 cumulative IPC: 0.33282 (Simulation time: 0 hr 23 min 19 sec) 
Heartbeat CPU  0 instructions:  566000003 cycles: 1468129887 heartbeat IPC: 0.25464 cumulative IPC: 0.33261 (Simulation time: 0 hr 23 min 22 sec) 
Heartbeat CPU  0 instructions:  567000000 cycles: 1470950801 heartbeat IPC: 0.35449 cumulative IPC: 0.33265 (Simulation time: 0 hr 23 min 25 sec) 
Heartbeat CPU  0 instructions:  568000000 cycles: 1473191591 heartbeat IPC: 0.44627 cumulative IPC: 0.33283 (Simulation time: 0 hr 23 min 27 sec) 
Heartbeat CPU  0 instructions:  569000000 cycles: 1475235992 heartbeat IPC: 0.48914 cumulative IPC: 0.33306 (Simulation time: 0 hr 23 min 30 sec) 
Heartbeat CPU  0 instructions:  570000002 cycles: 1477391869 heartbeat IPC: 0.46385 cumulative IPC: 0.33326 (Simulation time: 0 hr 23 min 33 sec) 
Heartbeat CPU  0 instructions:  571000000 cycles: 1481469750 heartbeat IPC: 0.24522 cumulative IPC: 0.33300 (Simulation time: 0 hr 23 min 36 sec) 
Heartbeat CPU  0 instructions:  572000000 cycles: 1485877547 heartbeat IPC: 0.22687 cumulative IPC: 0.33267 (Simulation time: 0 hr 23 min 40 sec) 
Heartbeat CPU  0 instructions:  573000002 cycles: 1487687957 heartbeat IPC: 0.55236 cumulative IPC: 0.33295 (Simulation time: 0 hr 23 min 41 sec) 
Heartbeat CPU  0 instructions:  574000002 cycles: 1489214906 heartbeat IPC: 0.65490 cumulative IPC: 0.33330 (Simulation time: 0 hr 23 min 43 sec) 
Heartbeat CPU  0 instructions:  575000000 cycles: 1492521405 heartbeat IPC: 0.30243 cumulative IPC: 0.33323 (Simulation time: 0 hr 23 min 46 sec) 
Heartbeat CPU  0 instructions:  576000000 cycles: 1495078923 heartbeat IPC: 0.39100 cumulative IPC: 0.33333 (Simulation time: 0 hr 23 min 48 sec) 
Heartbeat CPU  0 instructions:  577000000 cycles: 1498566674 heartbeat IPC: 0.28672 cumulative IPC: 0.33322 (Simulation time: 0 hr 23 min 51 sec) 
Heartbeat CPU  0 instructions:  578000002 cycles: 1502204461 heartbeat IPC: 0.27489 cumulative IPC: 0.33307 (Simulation time: 0 hr 23 min 54 sec) 
Heartbeat CPU  0 instructions:  579000002 cycles: 1505788981 heartbeat IPC: 0.27898 cumulative IPC: 0.33294 (Simulation time: 0 hr 23 min 58 sec) 
Heartbeat CPU  0 instructions:  580000000 cycles: 1508315614 heartbeat IPC: 0.39578 cumulative IPC: 0.33305 (Simulation time: 0 hr 24 min 0 sec) 
Heartbeat CPU  0 instructions:  581000000 cycles: 1510790841 heartbeat IPC: 0.40400 cumulative IPC: 0.33317 (Simulation time: 0 hr 24 min 3 sec) 
Heartbeat CPU  0 instructions:  582000002 cycles: 1516631016 heartbeat IPC: 0.17123 cumulative IPC: 0.33251 (Simulation time: 0 hr 24 min 8 sec) 
Heartbeat CPU  0 instructions:  583000000 cycles: 1518461142 heartbeat IPC: 0.54641 cumulative IPC: 0.33278 (Simulation time: 0 hr 24 min 10 sec) 
Heartbeat CPU  0 instructions:  584000000 cycles: 1520169237 heartbeat IPC: 0.58545 cumulative IPC: 0.33308 (Simulation time: 0 hr 24 min 11 sec) 
Heartbeat CPU  0 instructions:  585000000 cycles: 1522745668 heartbeat IPC: 0.38813 cumulative IPC: 0.33318 (Simulation time: 0 hr 24 min 14 sec) 
Heartbeat CPU  0 instructions:  586000000 cycles: 1525222989 heartbeat IPC: 0.40366 cumulative IPC: 0.33330 (Simulation time: 0 hr 24 min 17 sec) 
Heartbeat CPU  0 instructions:  587000002 cycles: 1529437382 heartbeat IPC: 0.23728 cumulative IPC: 0.33302 (Simulation time: 0 hr 24 min 19 sec) 
Heartbeat CPU  0 instructions:  588000000 cycles: 1532389064 heartbeat IPC: 0.33879 cumulative IPC: 0.33303 (Simulation time: 0 hr 24 min 22 sec) 
Heartbeat CPU  0 instructions:  589000001 cycles: 1534647074 heartbeat IPC: 0.44287 cumulative IPC: 0.33320 (Simulation time: 0 hr 24 min 25 sec) 
Heartbeat CPU  0 instructions:  590000000 cycles: 1537226473 heartbeat IPC: 0.38769 cumulative IPC: 0.33330 (Simulation time: 0 hr 24 min 27 sec) 
Heartbeat CPU  0 instructions:  591000003 cycles: 1539361122 heartbeat IPC: 0.46846 cumulative IPC: 0.33349 (Simulation time: 0 hr 24 min 30 sec) 
Heartbeat CPU  0 instructions:  592000000 cycles: 1545052436 heartbeat IPC: 0.17571 cumulative IPC: 0.33289 (Simulation time: 0 hr 24 min 35 sec) 
Heartbeat CPU  0 instructions:  593000003 cycles: 1547398359 heartbeat IPC: 0.42627 cumulative IPC: 0.33303 (Simulation time: 0 hr 24 min 36 sec) 
Heartbeat CPU  0 instructions:  594000003 cycles: 1549128999 heartbeat IPC: 0.57782 cumulative IPC: 0.33332 (Simulation time: 0 hr 24 min 38 sec) 
Heartbeat CPU  0 instructions:  595000003 cycles: 1551516281 heartbeat IPC: 0.41889 cumulative IPC: 0.33346 (Simulation time: 0 hr 24 min 40 sec) 
Heartbeat CPU  0 instructions:  596000000 cycles: 1554110814 heartbeat IPC: 0.38542 cumulative IPC: 0.33355 (Simulation time: 0 hr 24 min 43 sec) 
Heartbeat CPU  0 instructions:  597000002 cycles: 1558392640 heartbeat IPC: 0.23355 cumulative IPC: 0.33326 (Simulation time: 0 hr 24 min 46 sec) 
Heartbeat CPU  0 instructions:  598000001 cycles: 1561058401 heartbeat IPC: 0.37513 cumulative IPC: 0.33334 (Simulation time: 0 hr 24 min 48 sec) 
Heartbeat CPU  0 instructions:  599000003 cycles: 1563790586 heartbeat IPC: 0.36601 cumulative IPC: 0.33340 (Simulation time: 0 hr 24 min 51 sec) 
Heartbeat CPU  0 instructions:  600000000 cycles: 1566348591 heartbeat IPC: 0.39093 cumulative IPC: 0.33349 (Simulation time: 0 hr 24 min 54 sec) 
Finished CPU 0 instructions: 500000000 cycles: 1499278115 cumulative IPC: 0.33349 (Simulation time: 0 hr 24 min 54 sec) 

ChampSim completed all CPUs

[ROI Statistics]
Core_0_instructions 500000000
Core_0_cycles 1499278115
Core_0_IPC 0.33349

Core_0_branch_prediction_accuracy 95.09196
Core_0_branch_MPKI 8.72608
Core_0_average_ROB_occupancy_at_mispredict 83.43203

Core_0_L1D_total_access 103563553
Core_0_L1D_total_hit 77033904
Core_0_L1D_total_miss 26529649
Core_0_L1D_loads 77761178
Core_0_L1D_load_hit 55172062
Core_0_L1D_load_miss 22589116
Core_0_L1D_RFOs 25802375
Core_0_L1D_RFO_hit 21861842
Core_0_L1D_RFO_miss 3940533
Core_0_L1D_prefetches 0
Core_0_L1D_prefetch_hit 0
Core_0_L1D_prefetch_miss 0
Core_0_L1D_writebacks 0
Core_0_L1D_writeback_hit 0
Core_0_L1D_writeback_miss 0
Core_0_L1D_prefetch_requested 0
Core_0_L1D_prefetch_dropped 0
Core_0_L1D_prefetch_issued 0
Core_0_L1D_prefetch_filled 0
Core_0_L1D_prefetch_useful 0
Core_0_L1D_prefetch_useless 0
Core_0_L1D_prefetch_late 0
Core_0_L1D_average_miss_latency 141.25736

Core_0_L1D_rq_access 150242137
Core_0_L1D_rq_forward 0
Core_0_L1D_rq_merged 66067105
Core_0_L1D_rq_to_cache 84174956
Core_0_L1D_rq_full 0

Core_0_L1D_wq_access 35310153
Core_0_L1D_wq_forward 76
Core_0_L1D_wq_merged 33595
Core_0_L1D_wq_to_cache 35276558
Core_0_L1D_wq_full 7331801

Core_0_L1D_pq_access 0
Core_0_L1D_pq_forward 0
Core_0_L1D_pq_merged 0
Core_0_L1D_pq_to_cache 0
Core_0_L1D_pq_full 0

Core_0_L1D_acc_epochs 1480180
Core_0_L1D_acc_level_0 1480180
Core_0_L1D_acc_level_1 0
Core_0_L1D_acc_level_2 0
Core_0_L1D_acc_level_3 0
Core_0_L1D_acc_level_4 0
Core_0_L1D_acc_level_5 0
Core_0_L1D_acc_level_6 0
Core_0_L1D_acc_level_7 0
Core_0_L1D_acc_level_8 0
Core_0_L1D_acc_level_9 0

Core_0_L1I_total_access 104132113
Core_0_L1I_total_hit 104128915
Core_0_L1I_total_miss 3198
Core_0_L1I_loads 104132113
Core_0_L1I_load_hit 104128915
Core_0_L1I_load_miss 3198
Core_0_L1I_RFOs 0
Core_0_L1I_RFO_hit 0
Core_0_L1I_RFO_miss 0
Core_0_L1I_prefetches 0
Core_0_L1I_prefetch_hit 0
Core_0_L1I_prefetch_miss 0
Core_0_L1I_writebacks 0
Core_0_L1I_writeback_hit 0
Core_0_L1I_writeback_miss 0
Core_0_L1I_prefetch_requested 0
Core_0_L1I_prefetch_dropped 0
Core_0_L1I_prefetch_issued 0
Core_0_L1I_prefetch_filled 0
Core_0_L1I_prefetch_useful 0
Core_0_L1I_prefetch_useless 0
Core_0_L1I_prefetch_late 0
Core_0_L1I_average_miss_latency 263.71732

Core_0_L1I_rq_access 500000000
Core_0_L1I_rq_forward 0
Core_0_L1I_rq_merged 395864741
Core_0_L1I_rq_to_cache 104135259
Core_0_L1I_rq_full 0

Core_0_L1I_wq_access 0
Core_0_L1I_wq_forward 0
Core_0_L1I_wq_merged 0
Core_0_L1I_wq_to_cache 0
Core_0_L1I_wq_full 0

Core_0_L1I_pq_access 0
Core_0_L1I_pq_forward 0
Core_0_L1I_pq_merged 0
Core_0_L1I_pq_to_cache 0
Core_0_L1I_pq_full 0

Core_0_L1I_acc_epochs 1480180
Core_0_L1I_acc_level_0 1480180
Core_0_L1I_acc_level_1 0
Core_0_L1I_acc_level_2 0
Core_0_L1I_acc_level_3 0
Core_0_L1I_acc_level_4 0
Core_0_L1I_acc_level_5 0
Core_0_L1I_acc_level_6 0
Core_0_L1I_acc_level_7 0
Core_0_L1I_acc_level_8 0
Core_0_L1I_acc_level_9 0

Core_0_L2C_total_access 41271340
Core_0_L2C_total_hit 19409917
Core_0_L2C_total_miss 21861423
Core_0_L2C_loads 22589601
Core_0_L2C_load_hit 6660022
Core_0_L2C_load_miss 15929579
Core_0_L2C_RFOs 3940086
Core_0_L2C_RFO_hit 503322
Core_0_L2C_RFO_miss 3436764
Core_0_L2C_prefetches 3798718
Core_0_L2C_prefetch_hit 1304514
Core_0_L2C_prefetch_miss 2494204
Core_0_L2C_writebacks 10942935
Core_0_L2C_writeback_hit 10942059
Core_0_L2C_writeback_miss 876
Core_0_L2C_prefetch_requested 41238558
Core_0_L2C_prefetch_dropped 60
Core_0_L2C_prefetch_issued 41238498
Core_0_L2C_prefetch_filled 3140036
Core_0_L2C_prefetch_useful 2965681
Core_0_L2C_prefetch_useless 174345
Core_0_L2C_prefetch_late 471050
Core_0_L2C_average_miss_latency 158.85300

Core_0_L2C_rq_access 26532847
Core_0_L2C_rq_forward 0
Core_0_L2C_rq_merged 0
Core_0_L2C_rq_to_cache 26529687
Core_0_L2C_rq_full 0

Core_0_L2C_wq_access 10942935
Core_0_L2C_wq_forward 3198
Core_0_L2C_wq_merged 0
Core_0_L2C_wq_to_cache 10942935
Core_0_L2C_wq_full 0

Core_0_L2C_pq_access 41238498
Core_0_L2C_pq_forward 0
Core_0_L2C_pq_merged 2955626
Core_0_L2C_pq_to_cache 38282834
Core_0_L2C_pq_full 0

Core_0_L2C_acc_epochs 1480180
Core_0_L2C_acc_level_0 711242
Core_0_L2C_acc_level_1 62041
Core_0_L2C_acc_level_2 55642
Core_0_L2C_acc_level_3 44605
Core_0_L2C_acc_level_4 39638
Core_0_L2C_acc_level_5 54886
Core_0_L2C_acc_level_6 39677
Core_0_L2C_acc_level_7 43810
Core_0_L2C_acc_level_8 58124
Core_0_L2C_acc_level_9 370515

Core_0_LLC_total_access 51627389
Core_0_LLC_total_hit 32884771
Core_0_LLC_total_miss 18742618
Core_0_LLC_loads 15459511
Core_0_LLC_load_hit 7785967
Core_0_LLC_load_miss 7673544
Core_0_LLC_RFOs 3436740
Core_0_LLC_RFO_hit 867073
Core_0_LLC_RFO_miss 2569667
Core_0_LLC_prefetches 24639076
Core_0_LLC_prefetch_hit 17610621
Core_0_LLC_prefetch_miss 7028455
Core_0_LLC_writebacks 8092062
Core_0_LLC_writeback_hit 6621110
Core_0_LLC_writeback_miss 1470952
Core_0_LLC_prefetch_requested 0
Core_0_LLC_prefetch_dropped 0
Core_0_LLC_prefetch_issued 0
Core_0_LLC_prefetch_filled 8847693
Core_0_LLC_prefetch_useful 4584220
Core_0_LLC_prefetch_useless 4256023
Core_0_LLC_prefetch_late 866099
Core_0_LLC_average_miss_latency 233.94551

Core_0_LLC_rq_access 18896493
Core_0_LLC_rq_forward 0
Core_0_LLC_rq_merged 0
Core_0_LLC_rq_to_cache 18896251
Core_0_LLC_rq_full 0

Core_0_LLC_wq_access 8092062
Core_0_LLC_wq_forward 248
Core_0_LLC_wq_merged 0
Core_0_LLC_wq_to_cache 8092062
Core_0_LLC_wq_full 0

Core_0_LLC_pq_access 35163168
Core_0_LLC_pq_forward 0
Core_0_LLC_pq_merged 989605
Core_0_LLC_pq_to_cache 34173557
Core_0_LLC_pq_full 0

Core_0_LLC_acc_epochs 1529638
Core_0_LLC_acc_level_0 315418
Core_0_LLC_acc_level_1 139410
Core_0_LLC_acc_level_2 186626
Core_0_LLC_acc_level_3 168938
Core_0_LLC_acc_level_4 144013
Core_0_LLC_acc_level_5 168445
Core_0_LLC_acc_level_6 131537
Core_0_LLC_acc_level_7 87865
Core_0_LLC_acc_level_8 54567
Core_0_LLC_acc_level_9 132819

Core_0_major_page_fault 0
Core_0_minor_page_fault 12989

spp.pref.total 41238558
spp.pref.at_L2 4106514
spp.pref.at_LLC 37132044

spp.depth.max 11
spp.depth.min 0
spp.depth.avg 1

spp.breadth.max 2
spp.breadth.min 0
spp.breadth.avg 0

delta_1 29515132
delta_-1 11414492
delta_2 566823
delta_-2 110096
delta_3 69936
delta_-3 53514
delta_-4 21325
delta_10 14913
delta_14 9986
delta_4 3439
delta_7 3389
delta_6 2987
delta_8 2893
delta_11 2364
delta_9 1684
delta_15 1638
delta_5 691
delta_-5 517
delta_-33 503
delta_-12 226
delta_-20 189
delta_33 178
delta_17 46
delta_-6 37
delta_13 32
delta_16 11
delta_-7 7
delta_29 5
delta_-34 4
delta_-26 4
delta_12 3
delta_-16 2
delta_-14 1
delta_34 1

depth_1_delta_1 8586437
depth_1_delta_-1 3721028
depth_1_delta_2 422979
depth_1_delta_-2 101750
depth_1_delta_-3 46933
depth_1_delta_3 43550
depth_1_delta_-4 20159
depth_1_delta_10 10803
depth_1_delta_14 5519
depth_1_delta_4 3439
depth_1_delta_6 2171
depth_1_delta_8 2045
depth_1_delta_7 1995
depth_1_delta_15 1567
depth_1_delta_9 1401
depth_1_delta_11 1084
depth_1_delta_5 648
depth_1_delta_-5 517
depth_1_delta_-33 503
depth_1_delta_-12 226
depth_1_delta_-20 189
depth_1_delta_33 178
depth_1_delta_17 46
depth_1_delta_-6 37
depth_1_delta_13 32
depth_1_delta_16 11
depth_1_delta_-7 7
depth_1_delta_29 5
depth_1_delta_-34 4
depth_1_delta_-26 4
depth_1_delta_12 3
depth_1_delta_-16 2
depth_1_delta_-14 1
depth_1_delta_34 1
depth_2_delta_1 5829490
depth_2_delta_-1 2853391
depth_2_delta_2 105840
depth_2_delta_3 20479
depth_2_delta_-2 6602
depth_2_delta_-3 5004
depth_2_delta_14 3444
depth_2_delta_10 3085
depth_2_delta_-4 1166
depth_2_delta_7 1006
depth_2_delta_11 836
depth_2_delta_6 647
depth_2_delta_8 530
depth_2_delta_9 281
depth_2_delta_15 71
depth_2_delta_5 43
depth_3_delta_1 4224958
depth_3_delta_-1 2049313
depth_3_delta_2 31386
depth_3_delta_3 5467
depth_3_delta_-2 919
depth_3_delta_10 779
depth_3_delta_14 718
depth_3_delta_-3 674
depth_3_delta_7 301
depth_3_delta_11 270
depth_3_delta_8 222
depth_3_delta_6 134
depth_3_delta_9 2
depth_4_delta_1 3249850
depth_4_delta_-1 1461032
depth_4_delta_2 6003
depth_4_delta_3 434
depth_4_delta_-3 389
depth_4_delta_-2 375
depth_4_delta_14 278
depth_4_delta_10 218
depth_4_delta_11 129
depth_4_delta_7 84
depth_4_delta_8 74
depth_4_delta_6 33
depth_5_delta_1 2467332
depth_5_delta_-1 756218
depth_5_delta_2 615
depth_5_delta_-3 254
depth_5_delta_-2 219
depth_5_delta_11 33
depth_5_delta_10 28
depth_5_delta_14 27
depth_5_delta_8 17
depth_5_delta_3 6
depth_5_delta_7 3
depth_5_delta_6 2
depth_6_delta_1 1903588
depth_6_delta_-1 331534
depth_6_delta_-3 158
depth_6_delta_-2 132
depth_6_delta_11 9
depth_6_delta_8 5
depth_7_delta_1 1422920
depth_7_delta_-1 126799
depth_7_delta_-2 73
depth_7_delta_-3 64
depth_7_delta_11 2
depth_8_delta_1 1078874
depth_8_delta_-1 69616
depth_8_delta_-3 34
depth_8_delta_-2 19
depth_8_delta_11 1
depth_9_delta_1 578932
depth_9_delta_-1 36659
depth_9_delta_-2 7
depth_9_delta_-3 2
depth_10_delta_1 171135
depth_10_delta_-1 8886
depth_10_delta_-3 2
depth_11_delta_1 1616
depth_11_delta_-1 16

Channel_0_RQ_row_buffer_hit 4335267
Channel_0_RQ_row_buffer_miss 12933562
Channel_0_WQ_row_buffer_hit 1792519
Channel_0_WQ_row_buffer_miss 3433181
Channel_0_WQ_full 0
Channel_0_dbus_congested 11675550

avg_congested_cycle 10

DRAM_bw_pochs 6118550
DRAM_bw_level_0 3427967
DRAM_bw_level_1 1767925
DRAM_bw_level_2 592617
DRAM_bw_level_3 330041
