*************************************************
   ChampSim Multicore Out-of-Order Simulator
   Last compiled: Dec 11 2024 17:59:53
*************************************************
parsing config file: /home/functionmain/桌面/Pythia/config/spp_dev2.ini

trace_0 /home/functionmain/桌面/Pythia/traces/459.GemsFDTD-1211B.champsimtrace.xz
adding L2C_PREFETCHER: SPP_dev2
Initialize SIGNATURE TABLE
ST_SET: 1
ST_WAY: 256
ST_TAG_BIT: 16
ST_TAG_MASK: ffff

Initialize PATTERN TABLE
PT_SET: 512
PT_WAY: 4
SIG_DELTA_BIT: 7
C_SIG_BIT: 4
C_DELTA_BIT: 4

Initialize PREFETCH FILTER
FILTER_SET: 1024
fill_threshold: 90
pf_threshold: 40

Initialize SHIP state
warmup_instructions 100000000
simulation_instructions 500000000
champsim_seed 263
measure_ipc 0
measure_ipc_epoch 1000
measure_dram_bw 1
measure_dram_bw_epoch 256
measure_cache_acc 1
measure_cache_acc_epoch 1024
l1d_perfect 0
l2c_perfect 0
llc_perfect 0
l1d_semi_perfect 0
l2c_semi_perfect 0
llc_semi_perfect 0
semi_perfect_cache_page_buffer_size 64

num_cpus 1
cpu_freq 4000
dram_io_freq 300
page_size 4096
block_size 64
max_read_per_cycle 8
max_fill_per_cycle 1
dram_channels 1
log2_dram_channels 0
dram_ranks 1
dram_banks 8
dram_rows 65536
dram_columns 128
dram_row_size 8
dram_size 4096
dram_pages 1048576

fetch_width 6
decode_width 6
exec_width 4
lq_width 2
sq_width 2
retire_width 4
scheduler_size 128
branch_mispredict_penalty 20
rob_size 256
lq_size 72
sq_size 56
num_instr_destinations_sparc 4
num_instr_destinations 2
num_instr_sources 4

itlb_set 16
itlb_way 8
itlb_rq_size 16
itlb_wq_size 16
itlb_pq_size 0
itlb_mshr_size 8
itlb_latency 1

dtlb_set 16
dtlb_way 4
dtlb_rq_size 16
dtlb_wq_size 16
dtlb_pq_size 0
dtlb_mshr_size 8
dtlb_latency 1

stlb_set 128
stlb_way 12
stlb_rq_size 32
stlb_wq_size 32
stlb_pq_size 0
stlb_mshr_size 16
stlb_latency 8

l1i_size 32
l1i_set 64
l1i_way 8
l1i_rq_size 64
l1i_wq_size 64
l1i_pq_size 8
l1i_mshr_size 8
l1i_latency 1

l1d_size 32
l1d_set 64
l1d_way 8
l1d_rq_size 64
l1d_wq_size 64
l1d_pq_size 8
l1d_mshr_size 16
l1d_latency 4

l2c_size 256
l2c_set 512
l2c_way 8
l2c_rq_size 32
l2c_wq_size 32
l2c_pq_size 32
l2c_mshr_size 32
l2c_latency 10

llc_size 2048
llc_set 2048
llc_way 16
llc_rq_size 32
llc_wq_size 32
llc_pq_size 32
llc_mshr_size 64
llc_latency 20

dram_channel_width 8
dram_wq_size 64
dram_rq_size 64
tRP 15
tRCD 15
tCAS 12.5
dram_dbus_turn_around_time 30
dram_write_high_wm 56
dram_write_low_wm 48
min_dram_writes_per_switch 16
dram_mtps 300
dram_dbus_return_time 106


Heartbeat CPU  0 instructions:    1000003 cycles:     792316 heartbeat IPC: 1.26213 cumulative IPC: 1.26213 (Simulation time: 0 hr 0 min 3 sec) 
Heartbeat CPU  0 instructions:    2000002 cycles:    1584052 heartbeat IPC: 1.26305 cumulative IPC: 1.26259 (Simulation time: 0 hr 0 min 5 sec) 
Heartbeat CPU  0 instructions:    3000003 cycles:    2375810 heartbeat IPC: 1.26301 cumulative IPC: 1.26273 (Simulation time: 0 hr 0 min 8 sec) 
Heartbeat CPU  0 instructions:    4000000 cycles:    3167487 heartbeat IPC: 1.26314 cumulative IPC: 1.26283 (Simulation time: 0 hr 0 min 11 sec) 
Heartbeat CPU  0 instructions:    5000000 cycles:    3959187 heartbeat IPC: 1.26310 cumulative IPC: 1.26289 (Simulation time: 0 hr 0 min 13 sec) 
Heartbeat CPU  0 instructions:    6000002 cycles:    4750942 heartbeat IPC: 1.26302 cumulative IPC: 1.26291 (Simulation time: 0 hr 0 min 16 sec) 
Heartbeat CPU  0 instructions:    7000000 cycles:    5542531 heartbeat IPC: 1.26328 cumulative IPC: 1.26296 (Simulation time: 0 hr 0 min 18 sec) 
Heartbeat CPU  0 instructions:    8000000 cycles:    6334367 heartbeat IPC: 1.26289 cumulative IPC: 1.26295 (Simulation time: 0 hr 0 min 21 sec) 
Heartbeat CPU  0 instructions:    9000000 cycles:    7126140 heartbeat IPC: 1.26299 cumulative IPC: 1.26296 (Simulation time: 0 hr 0 min 24 sec) 
Heartbeat CPU  0 instructions:   10000001 cycles:    7917666 heartbeat IPC: 1.26338 cumulative IPC: 1.26300 (Simulation time: 0 hr 0 min 26 sec) 
Heartbeat CPU  0 instructions:   11000000 cycles:    8709103 heartbeat IPC: 1.26352 cumulative IPC: 1.26305 (Simulation time: 0 hr 0 min 29 sec) 
Heartbeat CPU  0 instructions:   12000000 cycles:    9500907 heartbeat IPC: 1.26294 cumulative IPC: 1.26304 (Simulation time: 0 hr 0 min 31 sec) 
Heartbeat CPU  0 instructions:   13000000 cycles:   10292611 heartbeat IPC: 1.26310 cumulative IPC: 1.26304 (Simulation time: 0 hr 0 min 34 sec) 
Heartbeat CPU  0 instructions:   14000002 cycles:   11084269 heartbeat IPC: 1.26317 cumulative IPC: 1.26305 (Simulation time: 0 hr 0 min 37 sec) 
Heartbeat CPU  0 instructions:   15000000 cycles:   11876022 heartbeat IPC: 1.26302 cumulative IPC: 1.26305 (Simulation time: 0 hr 0 min 39 sec) 
Heartbeat CPU  0 instructions:   16000000 cycles:   12667763 heartbeat IPC: 1.26304 cumulative IPC: 1.26305 (Simulation time: 0 hr 0 min 42 sec) 
Heartbeat CPU  0 instructions:   17000001 cycles:   13459534 heartbeat IPC: 1.26299 cumulative IPC: 1.26305 (Simulation time: 0 hr 0 min 44 sec) 
Heartbeat CPU  0 instructions:   18000002 cycles:   14251111 heartbeat IPC: 1.26330 cumulative IPC: 1.26306 (Simulation time: 0 hr 0 min 47 sec) 
Heartbeat CPU  0 instructions:   19000000 cycles:   15042920 heartbeat IPC: 1.26293 cumulative IPC: 1.26305 (Simulation time: 0 hr 0 min 50 sec) 
Heartbeat CPU  0 instructions:   20000000 cycles:   15834334 heartbeat IPC: 1.26356 cumulative IPC: 1.26308 (Simulation time: 0 hr 0 min 52 sec) 
Heartbeat CPU  0 instructions:   21000000 cycles:   16625833 heartbeat IPC: 1.26343 cumulative IPC: 1.26309 (Simulation time: 0 hr 0 min 55 sec) 
Heartbeat CPU  0 instructions:   22000003 cycles:   17417513 heartbeat IPC: 1.26314 cumulative IPC: 1.26310 (Simulation time: 0 hr 0 min 57 sec) 
Heartbeat CPU  0 instructions:   23000000 cycles:   18209250 heartbeat IPC: 1.26304 cumulative IPC: 1.26309 (Simulation time: 0 hr 1 min 0 sec) 
Heartbeat CPU  0 instructions:   24000000 cycles:   19000970 heartbeat IPC: 1.26307 cumulative IPC: 1.26309 (Simulation time: 0 hr 1 min 3 sec) 
Heartbeat CPU  0 instructions:   25000001 cycles:   19792739 heartbeat IPC: 1.26300 cumulative IPC: 1.26309 (Simulation time: 0 hr 1 min 5 sec) 
Heartbeat CPU  0 instructions:   26000002 cycles:   20584436 heartbeat IPC: 1.26311 cumulative IPC: 1.26309 (Simulation time: 0 hr 1 min 8 sec) 
Heartbeat CPU  0 instructions:   27000001 cycles:   21376043 heartbeat IPC: 1.26325 cumulative IPC: 1.26310 (Simulation time: 0 hr 1 min 10 sec) 
Heartbeat CPU  0 instructions:   28000000 cycles:   22167913 heartbeat IPC: 1.26283 cumulative IPC: 1.26309 (Simulation time: 0 hr 1 min 13 sec) 
Heartbeat CPU  0 instructions:   29000001 cycles:   22959678 heartbeat IPC: 1.26300 cumulative IPC: 1.26308 (Simulation time: 0 hr 1 min 16 sec) 
Heartbeat CPU  0 instructions:   30000002 cycles:   23751331 heartbeat IPC: 1.26318 cumulative IPC: 1.26309 (Simulation time: 0 hr 1 min 18 sec) 
Heartbeat CPU  0 instructions:   31000001 cycles:   24542935 heartbeat IPC: 1.26326 cumulative IPC: 1.26309 (Simulation time: 0 hr 1 min 21 sec) 
Heartbeat CPU  0 instructions:   32000000 cycles:   25334226 heartbeat IPC: 1.26376 cumulative IPC: 1.26311 (Simulation time: 0 hr 1 min 23 sec) 
Heartbeat CPU  0 instructions:   33000001 cycles:   26126051 heartbeat IPC: 1.26291 cumulative IPC: 1.26311 (Simulation time: 0 hr 1 min 26 sec) 
Heartbeat CPU  0 instructions:   34000003 cycles:   26917784 heartbeat IPC: 1.26305 cumulative IPC: 1.26311 (Simulation time: 0 hr 1 min 29 sec) 
Heartbeat CPU  0 instructions:   35000001 cycles:   27709477 heartbeat IPC: 1.26311 cumulative IPC: 1.26311 (Simulation time: 0 hr 1 min 31 sec) 
Heartbeat CPU  0 instructions:   36000000 cycles:   28501254 heartbeat IPC: 1.26298 cumulative IPC: 1.26310 (Simulation time: 0 hr 1 min 34 sec) 
Heartbeat CPU  0 instructions:   37000000 cycles:   29293046 heartbeat IPC: 1.26296 cumulative IPC: 1.26310 (Simulation time: 0 hr 1 min 36 sec) 
Heartbeat CPU  0 instructions:   38000000 cycles:   30084655 heartbeat IPC: 1.26325 cumulative IPC: 1.26310 (Simulation time: 0 hr 1 min 39 sec) 
Heartbeat CPU  0 instructions:   39000001 cycles:   30876265 heartbeat IPC: 1.26325 cumulative IPC: 1.26311 (Simulation time: 0 hr 1 min 42 sec) 
Heartbeat CPU  0 instructions:   40000000 cycles:   31659049 heartbeat IPC: 1.27749 cumulative IPC: 1.26346 (Simulation time: 0 hr 1 min 44 sec) 
Heartbeat CPU  0 instructions:   41000001 cycles:   32432058 heartbeat IPC: 1.29365 cumulative IPC: 1.26418 (Simulation time: 0 hr 1 min 47 sec) 
Heartbeat CPU  0 instructions:   42000003 cycles:   33204752 heartbeat IPC: 1.29418 cumulative IPC: 1.26488 (Simulation time: 0 hr 1 min 50 sec) 
Heartbeat CPU  0 instructions:   43000001 cycles:   33980511 heartbeat IPC: 1.28906 cumulative IPC: 1.26543 (Simulation time: 0 hr 1 min 53 sec) 
Heartbeat CPU  0 instructions:   44000000 cycles:   34771906 heartbeat IPC: 1.26359 cumulative IPC: 1.26539 (Simulation time: 0 hr 1 min 55 sec) 
Heartbeat CPU  0 instructions:   45000001 cycles:   35563226 heartbeat IPC: 1.26371 cumulative IPC: 1.26535 (Simulation time: 0 hr 1 min 58 sec) 
Heartbeat CPU  0 instructions:   46000003 cycles:   36354818 heartbeat IPC: 1.26328 cumulative IPC: 1.26531 (Simulation time: 0 hr 2 min 1 sec) 
Heartbeat CPU  0 instructions:   47000001 cycles:   37145953 heartbeat IPC: 1.26400 cumulative IPC: 1.26528 (Simulation time: 0 hr 2 min 3 sec) 
Heartbeat CPU  0 instructions:   48000000 cycles:   37937268 heartbeat IPC: 1.26372 cumulative IPC: 1.26525 (Simulation time: 0 hr 2 min 6 sec) 
Heartbeat CPU  0 instructions:   49000001 cycles:   38728391 heartbeat IPC: 1.26403 cumulative IPC: 1.26522 (Simulation time: 0 hr 2 min 9 sec) 
Heartbeat CPU  0 instructions:   50000003 cycles:   39519554 heartbeat IPC: 1.26396 cumulative IPC: 1.26520 (Simulation time: 0 hr 2 min 11 sec) 
Heartbeat CPU  0 instructions:   51000001 cycles:   40310973 heartbeat IPC: 1.26355 cumulative IPC: 1.26516 (Simulation time: 0 hr 2 min 14 sec) 
Heartbeat CPU  0 instructions:   52000000 cycles:   41102351 heartbeat IPC: 1.26362 cumulative IPC: 1.26513 (Simulation time: 0 hr 2 min 16 sec) 
Heartbeat CPU  0 instructions:   53000003 cycles:   41893833 heartbeat IPC: 1.26346 cumulative IPC: 1.26510 (Simulation time: 0 hr 2 min 19 sec) 
Heartbeat CPU  0 instructions:   54000002 cycles:   42685244 heartbeat IPC: 1.26356 cumulative IPC: 1.26507 (Simulation time: 0 hr 2 min 22 sec) 
Heartbeat CPU  0 instructions:   55000002 cycles:   43476483 heartbeat IPC: 1.26384 cumulative IPC: 1.26505 (Simulation time: 0 hr 2 min 24 sec) 
Heartbeat CPU  0 instructions:   56000000 cycles:   44267659 heartbeat IPC: 1.26394 cumulative IPC: 1.26503 (Simulation time: 0 hr 2 min 27 sec) 
Heartbeat CPU  0 instructions:   57000000 cycles:   45059185 heartbeat IPC: 1.26338 cumulative IPC: 1.26500 (Simulation time: 0 hr 2 min 29 sec) 
Heartbeat CPU  0 instructions:   58000002 cycles:   45850478 heartbeat IPC: 1.26376 cumulative IPC: 1.26498 (Simulation time: 0 hr 2 min 32 sec) 
Heartbeat CPU  0 instructions:   59000000 cycles:   46641909 heartbeat IPC: 1.26353 cumulative IPC: 1.26496 (Simulation time: 0 hr 2 min 35 sec) 
Heartbeat CPU  0 instructions:   60000000 cycles:   47433191 heartbeat IPC: 1.26377 cumulative IPC: 1.26494 (Simulation time: 0 hr 2 min 37 sec) 
Heartbeat CPU  0 instructions:   61000000 cycles:   48224298 heartbeat IPC: 1.26405 cumulative IPC: 1.26492 (Simulation time: 0 hr 2 min 40 sec) 
Heartbeat CPU  0 instructions:   62000002 cycles:   49015866 heartbeat IPC: 1.26332 cumulative IPC: 1.26490 (Simulation time: 0 hr 2 min 42 sec) 
Heartbeat CPU  0 instructions:   63000000 cycles:   49807241 heartbeat IPC: 1.26362 cumulative IPC: 1.26488 (Simulation time: 0 hr 2 min 45 sec) 
Heartbeat CPU  0 instructions:   64000000 cycles:   50598595 heartbeat IPC: 1.26366 cumulative IPC: 1.26486 (Simulation time: 0 hr 2 min 47 sec) 
Heartbeat CPU  0 instructions:   65000000 cycles:   51390154 heartbeat IPC: 1.26333 cumulative IPC: 1.26483 (Simulation time: 0 hr 2 min 50 sec) 
Heartbeat CPU  0 instructions:   66000003 cycles:   52181421 heartbeat IPC: 1.26380 cumulative IPC: 1.26482 (Simulation time: 0 hr 2 min 53 sec) 
Heartbeat CPU  0 instructions:   67000000 cycles:   52972782 heartbeat IPC: 1.26364 cumulative IPC: 1.26480 (Simulation time: 0 hr 2 min 56 sec) 
Heartbeat CPU  0 instructions:   68000000 cycles:   53763934 heartbeat IPC: 1.26398 cumulative IPC: 1.26479 (Simulation time: 0 hr 2 min 58 sec) 
Heartbeat CPU  0 instructions:   69000001 cycles:   54555285 heartbeat IPC: 1.26366 cumulative IPC: 1.26477 (Simulation time: 0 hr 3 min 1 sec) 
Heartbeat CPU  0 instructions:   70000002 cycles:   55346548 heartbeat IPC: 1.26380 cumulative IPC: 1.26476 (Simulation time: 0 hr 3 min 4 sec) 
Heartbeat CPU  0 instructions:   71000001 cycles:   56137828 heartbeat IPC: 1.26377 cumulative IPC: 1.26474 (Simulation time: 0 hr 3 min 6 sec) 
Heartbeat CPU  0 instructions:   72000000 cycles:   56928944 heartbeat IPC: 1.26404 cumulative IPC: 1.26473 (Simulation time: 0 hr 3 min 9 sec) 
Heartbeat CPU  0 instructions:   73000003 cycles:   57720606 heartbeat IPC: 1.26317 cumulative IPC: 1.26471 (Simulation time: 0 hr 3 min 12 sec) 
Heartbeat CPU  0 instructions:   74000003 cycles:   58511801 heartbeat IPC: 1.26391 cumulative IPC: 1.26470 (Simulation time: 0 hr 3 min 15 sec) 
Heartbeat CPU  0 instructions:   75000001 cycles:   59303074 heartbeat IPC: 1.26378 cumulative IPC: 1.26469 (Simulation time: 0 hr 3 min 18 sec) 
Heartbeat CPU  0 instructions:   76000000 cycles:   60094526 heartbeat IPC: 1.26350 cumulative IPC: 1.26467 (Simulation time: 0 hr 3 min 21 sec) 
Heartbeat CPU  0 instructions:   77000002 cycles:   60885733 heartbeat IPC: 1.26389 cumulative IPC: 1.26466 (Simulation time: 0 hr 3 min 24 sec) 
Heartbeat CPU  0 instructions:   78000001 cycles:   61677062 heartbeat IPC: 1.26370 cumulative IPC: 1.26465 (Simulation time: 0 hr 3 min 27 sec) 
Heartbeat CPU  0 instructions:   79000000 cycles:   62468296 heartbeat IPC: 1.26385 cumulative IPC: 1.26464 (Simulation time: 0 hr 3 min 29 sec) 
Heartbeat CPU  0 instructions:   80000000 cycles:   63259689 heartbeat IPC: 1.26359 cumulative IPC: 1.26463 (Simulation time: 0 hr 3 min 32 sec) 
Heartbeat CPU  0 instructions:   81000000 cycles:   64050957 heartbeat IPC: 1.26379 cumulative IPC: 1.26462 (Simulation time: 0 hr 3 min 35 sec) 
Heartbeat CPU  0 instructions:   82000002 cycles:   64842208 heartbeat IPC: 1.26382 cumulative IPC: 1.26461 (Simulation time: 0 hr 3 min 37 sec) 
Heartbeat CPU  0 instructions:   83000000 cycles:   65633455 heartbeat IPC: 1.26383 cumulative IPC: 1.26460 (Simulation time: 0 hr 3 min 40 sec) 
Heartbeat CPU  0 instructions:   84000000 cycles:   66424772 heartbeat IPC: 1.26372 cumulative IPC: 1.26459 (Simulation time: 0 hr 3 min 43 sec) 
Heartbeat CPU  0 instructions:   85000000 cycles:   67216165 heartbeat IPC: 1.26359 cumulative IPC: 1.26458 (Simulation time: 0 hr 3 min 45 sec) 
Heartbeat CPU  0 instructions:   86000002 cycles:   68007449 heartbeat IPC: 1.26377 cumulative IPC: 1.26457 (Simulation time: 0 hr 3 min 48 sec) 
Heartbeat CPU  0 instructions:   87000000 cycles:   68798762 heartbeat IPC: 1.26372 cumulative IPC: 1.26456 (Simulation time: 0 hr 3 min 51 sec) 
Heartbeat CPU  0 instructions:   88000000 cycles:   69589904 heartbeat IPC: 1.26400 cumulative IPC: 1.26455 (Simulation time: 0 hr 3 min 54 sec) 
Heartbeat CPU  0 instructions:   89000000 cycles:   70381296 heartbeat IPC: 1.26360 cumulative IPC: 1.26454 (Simulation time: 0 hr 3 min 56 sec) 
Heartbeat CPU  0 instructions:   90000003 cycles:   71172477 heartbeat IPC: 1.26394 cumulative IPC: 1.26453 (Simulation time: 0 hr 3 min 59 sec) 
Heartbeat CPU  0 instructions:   91000000 cycles:   71963631 heartbeat IPC: 1.26397 cumulative IPC: 1.26453 (Simulation time: 0 hr 4 min 1 sec) 
Heartbeat CPU  0 instructions:   92000000 cycles:   72754917 heartbeat IPC: 1.26377 cumulative IPC: 1.26452 (Simulation time: 0 hr 4 min 4 sec) 
Heartbeat CPU  0 instructions:   93000001 cycles:   73546064 heartbeat IPC: 1.26399 cumulative IPC: 1.26451 (Simulation time: 0 hr 4 min 7 sec) 
Heartbeat CPU  0 instructions:   94000001 cycles:   74337547 heartbeat IPC: 1.26345 cumulative IPC: 1.26450 (Simulation time: 0 hr 4 min 9 sec) 
Heartbeat CPU  0 instructions:   95000000 cycles:   75128772 heartbeat IPC: 1.26386 cumulative IPC: 1.26450 (Simulation time: 0 hr 4 min 12 sec) 
Heartbeat CPU  0 instructions:   96000000 cycles:   75920060 heartbeat IPC: 1.26376 cumulative IPC: 1.26449 (Simulation time: 0 hr 4 min 14 sec) 
Heartbeat CPU  0 instructions:   97000003 cycles:   76711494 heartbeat IPC: 1.26353 cumulative IPC: 1.26448 (Simulation time: 0 hr 4 min 17 sec) 
Heartbeat CPU  0 instructions:   98000003 cycles:   77502597 heartbeat IPC: 1.26406 cumulative IPC: 1.26447 (Simulation time: 0 hr 4 min 19 sec) 
Heartbeat CPU  0 instructions:   99000003 cycles:   78293906 heartbeat IPC: 1.26373 cumulative IPC: 1.26447 (Simulation time: 0 hr 4 min 22 sec) 
Heartbeat CPU  0 instructions:  100000000 cycles:   79085149 heartbeat IPC: 1.26383 cumulative IPC: 1.26446 (Simulation time: 0 hr 4 min 24 sec) 

Warmup complete CPU  0 instructions:  100000001 cycles:   79085150 (Simulation time: 0 hr 4 min 24 sec) 

Heartbeat CPU  0 instructions:  101000001 cycles:   81022177 heartbeat IPC: 0.51626 cumulative IPC: 0.51626 (Simulation time: 0 hr 4 min 28 sec) 
Heartbeat CPU  0 instructions:  102000002 cycles:   82957181 heartbeat IPC: 0.51680 cumulative IPC: 0.51653 (Simulation time: 0 hr 4 min 31 sec) 
Heartbeat CPU  0 instructions:  103000003 cycles:   84894937 heartbeat IPC: 0.51606 cumulative IPC: 0.51637 (Simulation time: 0 hr 4 min 34 sec) 
Heartbeat CPU  0 instructions:  104000000 cycles:   86830806 heartbeat IPC: 0.51656 cumulative IPC: 0.51642 (Simulation time: 0 hr 4 min 38 sec) 
Heartbeat CPU  0 instructions:  105000001 cycles:   88788735 heartbeat IPC: 0.51074 cumulative IPC: 0.51527 (Simulation time: 0 hr 4 min 41 sec) 
Heartbeat CPU  0 instructions:  106000002 cycles:   90740070 heartbeat IPC: 0.51247 cumulative IPC: 0.51480 (Simulation time: 0 hr 4 min 44 sec) 
Heartbeat CPU  0 instructions:  107000000 cycles:   92688235 heartbeat IPC: 0.51330 cumulative IPC: 0.51459 (Simulation time: 0 hr 4 min 48 sec) 
Heartbeat CPU  0 instructions:  108000000 cycles:   94640215 heartbeat IPC: 0.51230 cumulative IPC: 0.51430 (Simulation time: 0 hr 4 min 51 sec) 
Heartbeat CPU  0 instructions:  109000000 cycles:   96572693 heartbeat IPC: 0.51747 cumulative IPC: 0.51465 (Simulation time: 0 hr 4 min 54 sec) 
Heartbeat CPU  0 instructions:  110000002 cycles:   98521879 heartbeat IPC: 0.51304 cumulative IPC: 0.51449 (Simulation time: 0 hr 4 min 58 sec) 
Heartbeat CPU  0 instructions:  111000001 cycles:  100464887 heartbeat IPC: 0.51467 cumulative IPC: 0.51451 (Simulation time: 0 hr 5 min 1 sec) 
Heartbeat CPU  0 instructions:  112000000 cycles:  102418958 heartbeat IPC: 0.51175 cumulative IPC: 0.51428 (Simulation time: 0 hr 5 min 4 sec) 
Heartbeat CPU  0 instructions:  113000000 cycles:  104362566 heartbeat IPC: 0.51451 cumulative IPC: 0.51429 (Simulation time: 0 hr 5 min 8 sec) 
Heartbeat CPU  0 instructions:  114000002 cycles:  106315860 heartbeat IPC: 0.51196 cumulative IPC: 0.51413 (Simulation time: 0 hr 5 min 11 sec) 
Heartbeat CPU  0 instructions:  115000002 cycles:  108254481 heartbeat IPC: 0.51583 cumulative IPC: 0.51424 (Simulation time: 0 hr 5 min 14 sec) 
Heartbeat CPU  0 instructions:  116000000 cycles:  110196719 heartbeat IPC: 0.51487 cumulative IPC: 0.51428 (Simulation time: 0 hr 5 min 18 sec) 
Heartbeat CPU  0 instructions:  117000001 cycles:  112150351 heartbeat IPC: 0.51187 cumulative IPC: 0.51414 (Simulation time: 0 hr 5 min 21 sec) 
Heartbeat CPU  0 instructions:  118000000 cycles:  114081058 heartbeat IPC: 0.51794 cumulative IPC: 0.51435 (Simulation time: 0 hr 5 min 24 sec) 
Heartbeat CPU  0 instructions:  119000000 cycles:  116028230 heartbeat IPC: 0.51357 cumulative IPC: 0.51430 (Simulation time: 0 hr 5 min 28 sec) 
Heartbeat CPU  0 instructions:  120000000 cycles:  117962966 heartbeat IPC: 0.51687 cumulative IPC: 0.51443 (Simulation time: 0 hr 5 min 31 sec) 
Heartbeat CPU  0 instructions:  121000003 cycles:  119890550 heartbeat IPC: 0.51879 cumulative IPC: 0.51464 (Simulation time: 0 hr 5 min 34 sec) 
Heartbeat CPU  0 instructions:  122000001 cycles:  121838234 heartbeat IPC: 0.51343 cumulative IPC: 0.51458 (Simulation time: 0 hr 5 min 38 sec) 
Heartbeat CPU  0 instructions:  123000000 cycles:  123773991 heartbeat IPC: 0.51659 cumulative IPC: 0.51467 (Simulation time: 0 hr 5 min 41 sec) 
Heartbeat CPU  0 instructions:  124000000 cycles:  125728531 heartbeat IPC: 0.51163 cumulative IPC: 0.51454 (Simulation time: 0 hr 5 min 44 sec) 
Heartbeat CPU  0 instructions:  125000001 cycles:  127676289 heartbeat IPC: 0.51341 cumulative IPC: 0.51450 (Simulation time: 0 hr 5 min 48 sec) 
Heartbeat CPU  0 instructions:  126000001 cycles:  129622215 heartbeat IPC: 0.51389 cumulative IPC: 0.51447 (Simulation time: 0 hr 5 min 51 sec) 
Heartbeat CPU  0 instructions:  127000003 cycles:  131568685 heartbeat IPC: 0.51375 cumulative IPC: 0.51445 (Simulation time: 0 hr 5 min 54 sec) 
Heartbeat CPU  0 instructions:  128000000 cycles:  133527687 heartbeat IPC: 0.51046 cumulative IPC: 0.51430 (Simulation time: 0 hr 5 min 57 sec) 
Heartbeat CPU  0 instructions:  129000003 cycles:  135457410 heartbeat IPC: 0.51821 cumulative IPC: 0.51444 (Simulation time: 0 hr 6 min 1 sec) 
Heartbeat CPU  0 instructions:  130000001 cycles:  137395112 heartbeat IPC: 0.51607 cumulative IPC: 0.51449 (Simulation time: 0 hr 6 min 4 sec) 
Heartbeat CPU  0 instructions:  131000002 cycles:  139320022 heartbeat IPC: 0.51951 cumulative IPC: 0.51465 (Simulation time: 0 hr 6 min 8 sec) 
Heartbeat CPU  0 instructions:  132000000 cycles:  141265230 heartbeat IPC: 0.51408 cumulative IPC: 0.51463 (Simulation time: 0 hr 6 min 11 sec) 
Heartbeat CPU  0 instructions:  133000000 cycles:  143213095 heartbeat IPC: 0.51338 cumulative IPC: 0.51460 (Simulation time: 0 hr 6 min 14 sec) 
Heartbeat CPU  0 instructions:  134000002 cycles:  145158559 heartbeat IPC: 0.51402 cumulative IPC: 0.51458 (Simulation time: 0 hr 6 min 18 sec) 
Heartbeat CPU  0 instructions:  135000003 cycles:  147099830 heartbeat IPC: 0.51513 cumulative IPC: 0.51459 (Simulation time: 0 hr 6 min 21 sec) 
Heartbeat CPU  0 instructions:  136000000 cycles:  149043462 heartbeat IPC: 0.51450 cumulative IPC: 0.51459 (Simulation time: 0 hr 6 min 24 sec) 
Heartbeat CPU  0 instructions:  137000000 cycles:  150999213 heartbeat IPC: 0.51131 cumulative IPC: 0.51450 (Simulation time: 0 hr 6 min 27 sec) 
Heartbeat CPU  0 instructions:  138000000 cycles:  152942207 heartbeat IPC: 0.51467 cumulative IPC: 0.51451 (Simulation time: 0 hr 6 min 31 sec) 
Heartbeat CPU  0 instructions:  139000002 cycles:  154899475 heartbeat IPC: 0.51092 cumulative IPC: 0.51441 (Simulation time: 0 hr 6 min 34 sec) 
Heartbeat CPU  0 instructions:  140000000 cycles:  156848199 heartbeat IPC: 0.51316 cumulative IPC: 0.51438 (Simulation time: 0 hr 6 min 37 sec) 
Heartbeat CPU  0 instructions:  141000002 cycles:  158788182 heartbeat IPC: 0.51547 cumulative IPC: 0.51441 (Simulation time: 0 hr 6 min 41 sec) 
Heartbeat CPU  0 instructions:  142000000 cycles:  160731728 heartbeat IPC: 0.51452 cumulative IPC: 0.51441 (Simulation time: 0 hr 6 min 44 sec) 
Heartbeat CPU  0 instructions:  143000003 cycles:  162676249 heartbeat IPC: 0.51427 cumulative IPC: 0.51441 (Simulation time: 0 hr 6 min 47 sec) 
Heartbeat CPU  0 instructions:  144000000 cycles:  164614840 heartbeat IPC: 0.51584 cumulative IPC: 0.51444 (Simulation time: 0 hr 6 min 51 sec) 
Heartbeat CPU  0 instructions:  145000003 cycles:  166559549 heartbeat IPC: 0.51422 cumulative IPC: 0.51444 (Simulation time: 0 hr 6 min 54 sec) 
Heartbeat CPU  0 instructions:  146000001 cycles:  168504182 heartbeat IPC: 0.51423 cumulative IPC: 0.51443 (Simulation time: 0 hr 6 min 57 sec) 
Heartbeat CPU  0 instructions:  147000003 cycles:  170463201 heartbeat IPC: 0.51046 cumulative IPC: 0.51435 (Simulation time: 0 hr 7 min 1 sec) 
Heartbeat CPU  0 instructions:  148000000 cycles:  172411893 heartbeat IPC: 0.51316 cumulative IPC: 0.51432 (Simulation time: 0 hr 7 min 4 sec) 
Heartbeat CPU  0 instructions:  149000003 cycles:  174347496 heartbeat IPC: 0.51664 cumulative IPC: 0.51437 (Simulation time: 0 hr 7 min 7 sec) 
Heartbeat CPU  0 instructions:  150000001 cycles:  176278563 heartbeat IPC: 0.51785 cumulative IPC: 0.51444 (Simulation time: 0 hr 7 min 11 sec) 
Heartbeat CPU  0 instructions:  151000003 cycles:  178212096 heartbeat IPC: 0.51719 cumulative IPC: 0.51449 (Simulation time: 0 hr 7 min 14 sec) 
Heartbeat CPU  0 instructions:  152000000 cycles:  180139215 heartbeat IPC: 0.51891 cumulative IPC: 0.51458 (Simulation time: 0 hr 7 min 17 sec) 
Heartbeat CPU  0 instructions:  153000003 cycles:  182061633 heartbeat IPC: 0.52018 cumulative IPC: 0.51468 (Simulation time: 0 hr 7 min 21 sec) 
Heartbeat CPU  0 instructions:  154000001 cycles:  183993576 heartbeat IPC: 0.51761 cumulative IPC: 0.51473 (Simulation time: 0 hr 7 min 24 sec) 
Heartbeat CPU  0 instructions:  155000001 cycles:  185931425 heartbeat IPC: 0.51604 cumulative IPC: 0.51476 (Simulation time: 0 hr 7 min 27 sec) 
Heartbeat CPU  0 instructions:  156000000 cycles:  187862608 heartbeat IPC: 0.51782 cumulative IPC: 0.51481 (Simulation time: 0 hr 7 min 30 sec) 
Heartbeat CPU  0 instructions:  157000001 cycles:  189796601 heartbeat IPC: 0.51707 cumulative IPC: 0.51485 (Simulation time: 0 hr 7 min 34 sec) 
Heartbeat CPU  0 instructions:  158000003 cycles:  191727246 heartbeat IPC: 0.51796 cumulative IPC: 0.51491 (Simulation time: 0 hr 7 min 37 sec) 
Heartbeat CPU  0 instructions:  159000003 cycles:  193668376 heartbeat IPC: 0.51516 cumulative IPC: 0.51491 (Simulation time: 0 hr 7 min 40 sec) 
Heartbeat CPU  0 instructions:  160000000 cycles:  195603016 heartbeat IPC: 0.51689 cumulative IPC: 0.51494 (Simulation time: 0 hr 7 min 44 sec) 
Heartbeat CPU  0 instructions:  161000002 cycles:  197544361 heartbeat IPC: 0.51511 cumulative IPC: 0.51495 (Simulation time: 0 hr 7 min 47 sec) 
Heartbeat CPU  0 instructions:  162000000 cycles:  199472785 heartbeat IPC: 0.51856 cumulative IPC: 0.51500 (Simulation time: 0 hr 7 min 50 sec) 
Heartbeat CPU  0 instructions:  163000000 cycles:  201380283 heartbeat IPC: 0.52425 cumulative IPC: 0.51515 (Simulation time: 0 hr 7 min 54 sec) 
Heartbeat CPU  0 instructions:  164000000 cycles:  203314806 heartbeat IPC: 0.51692 cumulative IPC: 0.51517 (Simulation time: 0 hr 7 min 57 sec) 
Heartbeat CPU  0 instructions:  165000002 cycles:  205233032 heartbeat IPC: 0.52132 cumulative IPC: 0.51527 (Simulation time: 0 hr 8 min 0 sec) 
Heartbeat CPU  0 instructions:  166000003 cycles:  207156908 heartbeat IPC: 0.51978 cumulative IPC: 0.51534 (Simulation time: 0 hr 8 min 4 sec) 
Heartbeat CPU  0 instructions:  167000002 cycles:  209084260 heartbeat IPC: 0.51885 cumulative IPC: 0.51539 (Simulation time: 0 hr 8 min 7 sec) 
Heartbeat CPU  0 instructions:  168000000 cycles:  211013136 heartbeat IPC: 0.51844 cumulative IPC: 0.51543 (Simulation time: 0 hr 8 min 10 sec) 
Heartbeat CPU  0 instructions:  169000001 cycles:  212958565 heartbeat IPC: 0.51403 cumulative IPC: 0.51541 (Simulation time: 0 hr 8 min 14 sec) 
Heartbeat CPU  0 instructions:  170000000 cycles:  214894739 heartbeat IPC: 0.51648 cumulative IPC: 0.51543 (Simulation time: 0 hr 8 min 17 sec) 
Heartbeat CPU  0 instructions:  171000003 cycles:  216827745 heartbeat IPC: 0.51733 cumulative IPC: 0.51545 (Simulation time: 0 hr 8 min 20 sec) 
Heartbeat CPU  0 instructions:  172000000 cycles:  218750566 heartbeat IPC: 0.52007 cumulative IPC: 0.51552 (Simulation time: 0 hr 8 min 24 sec) 
Heartbeat CPU  0 instructions:  173000000 cycles:  220686769 heartbeat IPC: 0.51647 cumulative IPC: 0.51553 (Simulation time: 0 hr 8 min 27 sec) 
Heartbeat CPU  0 instructions:  174000001 cycles:  222614159 heartbeat IPC: 0.51884 cumulative IPC: 0.51558 (Simulation time: 0 hr 8 min 31 sec) 
Heartbeat CPU  0 instructions:  175000003 cycles:  224533846 heartbeat IPC: 0.52092 cumulative IPC: 0.51565 (Simulation time: 0 hr 8 min 34 sec) 
Heartbeat CPU  0 instructions:  176000000 cycles:  226462970 heartbeat IPC: 0.51837 cumulative IPC: 0.51568 (Simulation time: 0 hr 8 min 37 sec) 
Heartbeat CPU  0 instructions:  177000003 cycles:  228383383 heartbeat IPC: 0.52072 cumulative IPC: 0.51575 (Simulation time: 0 hr 8 min 41 sec) 
Heartbeat CPU  0 instructions:  178000001 cycles:  230311648 heartbeat IPC: 0.51860 cumulative IPC: 0.51578 (Simulation time: 0 hr 8 min 44 sec) 
Heartbeat CPU  0 instructions:  179000000 cycles:  232234623 heartbeat IPC: 0.52003 cumulative IPC: 0.51584 (Simulation time: 0 hr 8 min 47 sec) 
Heartbeat CPU  0 instructions:  180000000 cycles:  234162774 heartbeat IPC: 0.51863 cumulative IPC: 0.51587 (Simulation time: 0 hr 8 min 50 sec) 
Heartbeat CPU  0 instructions:  181000000 cycles:  236084959 heartbeat IPC: 0.52024 cumulative IPC: 0.51592 (Simulation time: 0 hr 8 min 54 sec) 
Heartbeat CPU  0 instructions:  182000001 cycles:  238026718 heartbeat IPC: 0.51500 cumulative IPC: 0.51591 (Simulation time: 0 hr 8 min 57 sec) 
Heartbeat CPU  0 instructions:  183000002 cycles:  239972881 heartbeat IPC: 0.51383 cumulative IPC: 0.51589 (Simulation time: 0 hr 9 min 0 sec) 
Heartbeat CPU  0 instructions:  184000000 cycles:  241909054 heartbeat IPC: 0.51648 cumulative IPC: 0.51589 (Simulation time: 0 hr 9 min 4 sec) 
Heartbeat CPU  0 instructions:  185000001 cycles:  243822070 heartbeat IPC: 0.52274 cumulative IPC: 0.51597 (Simulation time: 0 hr 9 min 7 sec) 
Heartbeat CPU  0 instructions:  186000000 cycles:  245751693 heartbeat IPC: 0.51824 cumulative IPC: 0.51600 (Simulation time: 0 hr 9 min 10 sec) 
Heartbeat CPU  0 instructions:  187000000 cycles:  247494933 heartbeat IPC: 0.57364 cumulative IPC: 0.51660 (Simulation time: 0 hr 9 min 14 sec) 
Heartbeat CPU  0 instructions:  188000000 cycles:  248994660 heartbeat IPC: 0.66679 cumulative IPC: 0.51792 (Simulation time: 0 hr 9 min 17 sec) 
Heartbeat CPU  0 instructions:  189000002 cycles:  250483379 heartbeat IPC: 0.67172 cumulative IPC: 0.51926 (Simulation time: 0 hr 9 min 20 sec) 
Heartbeat CPU  0 instructions:  190000003 cycles:  252000807 heartbeat IPC: 0.65901 cumulative IPC: 0.52048 (Simulation time: 0 hr 9 min 23 sec) 
Heartbeat CPU  0 instructions:  191000000 cycles:  253499530 heartbeat IPC: 0.66723 cumulative IPC: 0.52175 (Simulation time: 0 hr 9 min 26 sec) 
Heartbeat CPU  0 instructions:  192000000 cycles:  254995247 heartbeat IPC: 0.66858 cumulative IPC: 0.52299 (Simulation time: 0 hr 9 min 29 sec) 
Heartbeat CPU  0 instructions:  193000001 cycles:  256501878 heartbeat IPC: 0.66373 cumulative IPC: 0.52419 (Simulation time: 0 hr 9 min 32 sec) 
Heartbeat CPU  0 instructions:  194000000 cycles:  258008135 heartbeat IPC: 0.66390 cumulative IPC: 0.52537 (Simulation time: 0 hr 9 min 36 sec) 
Heartbeat CPU  0 instructions:  195000000 cycles:  259512626 heartbeat IPC: 0.66468 cumulative IPC: 0.52653 (Simulation time: 0 hr 9 min 39 sec) 
Heartbeat CPU  0 instructions:  196000000 cycles:  261029061 heartbeat IPC: 0.65944 cumulative IPC: 0.52764 (Simulation time: 0 hr 9 min 42 sec) 
Heartbeat CPU  0 instructions:  197000000 cycles:  262510302 heartbeat IPC: 0.67511 cumulative IPC: 0.52883 (Simulation time: 0 hr 9 min 45 sec) 
Heartbeat CPU  0 instructions:  198000003 cycles:  264014582 heartbeat IPC: 0.66477 cumulative IPC: 0.52993 (Simulation time: 0 hr 9 min 48 sec) 
Heartbeat CPU  0 instructions:  199000001 cycles:  265538281 heartbeat IPC: 0.65630 cumulative IPC: 0.53096 (Simulation time: 0 hr 9 min 51 sec) 
Heartbeat CPU  0 instructions:  200000000 cycles:  267034657 heartbeat IPC: 0.66828 cumulative IPC: 0.53206 (Simulation time: 0 hr 9 min 55 sec) 
Heartbeat CPU  0 instructions:  201000003 cycles:  268546701 heartbeat IPC: 0.66136 cumulative IPC: 0.53309 (Simulation time: 0 hr 9 min 58 sec) 
Heartbeat CPU  0 instructions:  202000000 cycles:  270070477 heartbeat IPC: 0.65626 cumulative IPC: 0.53407 (Simulation time: 0 hr 10 min 1 sec) 
Heartbeat CPU  0 instructions:  203000001 cycles:  271576277 heartbeat IPC: 0.66410 cumulative IPC: 0.53509 (Simulation time: 0 hr 10 min 5 sec) 
Heartbeat CPU  0 instructions:  204000000 cycles:  273079860 heartbeat IPC: 0.66508 cumulative IPC: 0.53610 (Simulation time: 0 hr 10 min 8 sec) 
Heartbeat CPU  0 instructions:  205000000 cycles:  274596161 heartbeat IPC: 0.65950 cumulative IPC: 0.53705 (Simulation time: 0 hr 10 min 11 sec) 
Heartbeat CPU  0 instructions:  206000002 cycles:  276078428 heartbeat IPC: 0.67464 cumulative IPC: 0.53809 (Simulation time: 0 hr 10 min 14 sec) 
Heartbeat CPU  0 instructions:  207000000 cycles:  277594493 heartbeat IPC: 0.65960 cumulative IPC: 0.53902 (Simulation time: 0 hr 10 min 17 sec) 
Heartbeat CPU  0 instructions:  208000000 cycles:  279101746 heartbeat IPC: 0.66346 cumulative IPC: 0.53996 (Simulation time: 0 hr 10 min 20 sec) 
Heartbeat CPU  0 instructions:  209000003 cycles:  280592348 heartbeat IPC: 0.67087 cumulative IPC: 0.54092 (Simulation time: 0 hr 10 min 24 sec) 
Heartbeat CPU  0 instructions:  210000000 cycles:  282120508 heartbeat IPC: 0.65438 cumulative IPC: 0.54178 (Simulation time: 0 hr 10 min 27 sec) 
Heartbeat CPU  0 instructions:  211000003 cycles:  283621976 heartbeat IPC: 0.66602 cumulative IPC: 0.54269 (Simulation time: 0 hr 10 min 30 sec) 
Heartbeat CPU  0 instructions:  212000000 cycles:  285131456 heartbeat IPC: 0.66248 cumulative IPC: 0.54357 (Simulation time: 0 hr 10 min 33 sec) 
Heartbeat CPU  0 instructions:  213000003 cycles:  286653918 heartbeat IPC: 0.65683 cumulative IPC: 0.54440 (Simulation time: 0 hr 10 min 36 sec) 
Heartbeat CPU  0 instructions:  214000000 cycles:  288167230 heartbeat IPC: 0.66080 cumulative IPC: 0.54524 (Simulation time: 0 hr 10 min 40 sec) 
Heartbeat CPU  0 instructions:  215000002 cycles:  289650241 heartbeat IPC: 0.67431 cumulative IPC: 0.54615 (Simulation time: 0 hr 10 min 43 sec) 
Heartbeat CPU  0 instructions:  216000000 cycles:  291162072 heartbeat IPC: 0.66145 cumulative IPC: 0.54697 (Simulation time: 0 hr 10 min 46 sec) 
Heartbeat CPU  0 instructions:  217000001 cycles:  292654660 heartbeat IPC: 0.66998 cumulative IPC: 0.54783 (Simulation time: 0 hr 10 min 49 sec) 
Heartbeat CPU  0 instructions:  218000000 cycles:  294146440 heartbeat IPC: 0.67034 cumulative IPC: 0.54868 (Simulation time: 0 hr 10 min 52 sec) 
Heartbeat CPU  0 instructions:  219000000 cycles:  295663254 heartbeat IPC: 0.65928 cumulative IPC: 0.54946 (Simulation time: 0 hr 10 min 55 sec) 
Heartbeat CPU  0 instructions:  220000000 cycles:  297155632 heartbeat IPC: 0.67007 cumulative IPC: 0.55028 (Simulation time: 0 hr 10 min 59 sec) 
Heartbeat CPU  0 instructions:  221000000 cycles:  298669870 heartbeat IPC: 0.66040 cumulative IPC: 0.55104 (Simulation time: 0 hr 11 min 2 sec) 
Heartbeat CPU  0 instructions:  222000000 cycles:  300175902 heartbeat IPC: 0.66400 cumulative IPC: 0.55181 (Simulation time: 0 hr 11 min 5 sec) 
Heartbeat CPU  0 instructions:  223000003 cycles:  301659674 heartbeat IPC: 0.67396 cumulative IPC: 0.55262 (Simulation time: 0 hr 11 min 8 sec) 
Heartbeat CPU  0 instructions:  224000000 cycles:  303195480 heartbeat IPC: 0.65112 cumulative IPC: 0.55330 (Simulation time: 0 hr 11 min 11 sec) 
Heartbeat CPU  0 instructions:  225000001 cycles:  304702786 heartbeat IPC: 0.66344 cumulative IPC: 0.55403 (Simulation time: 0 hr 11 min 15 sec) 
Heartbeat CPU  0 instructions:  226000002 cycles:  306203324 heartbeat IPC: 0.66643 cumulative IPC: 0.55478 (Simulation time: 0 hr 11 min 18 sec) 
Heartbeat CPU  0 instructions:  227000003 cycles:  307717336 heartbeat IPC: 0.66050 cumulative IPC: 0.55548 (Simulation time: 0 hr 11 min 21 sec) 
Heartbeat CPU  0 instructions:  228000000 cycles:  309223142 heartbeat IPC: 0.66409 cumulative IPC: 0.55619 (Simulation time: 0 hr 11 min 24 sec) 
Heartbeat CPU  0 instructions:  229000000 cycles:  310719421 heartbeat IPC: 0.66832 cumulative IPC: 0.55691 (Simulation time: 0 hr 11 min 27 sec) 
Heartbeat CPU  0 instructions:  230000003 cycles:  312228324 heartbeat IPC: 0.66274 cumulative IPC: 0.55760 (Simulation time: 0 hr 11 min 30 sec) 
Heartbeat CPU  0 instructions:  231000000 cycles:  313717792 heartbeat IPC: 0.67138 cumulative IPC: 0.55832 (Simulation time: 0 hr 11 min 34 sec) 
Heartbeat CPU  0 instructions:  232000000 cycles:  315209517 heartbeat IPC: 0.67036 cumulative IPC: 0.55903 (Simulation time: 0 hr 11 min 37 sec) 
Heartbeat CPU  0 instructions:  233000003 cycles:  316722800 heartbeat IPC: 0.66082 cumulative IPC: 0.55968 (Simulation time: 0 hr 11 min 40 sec) 
Heartbeat CPU  0 instructions:  234000002 cycles:  318202976 heartbeat IPC: 0.67559 cumulative IPC: 0.56039 (Simulation time: 0 hr 11 min 43 sec) 
Heartbeat CPU  0 instructions:  235000001 cycles:  319713071 heartbeat IPC: 0.66221 cumulative IPC: 0.56103 (Simulation time: 0 hr 11 min 46 sec) 
Heartbeat CPU  0 instructions:  236000000 cycles:  321243533 heartbeat IPC: 0.65340 cumulative IPC: 0.56162 (Simulation time: 0 hr 11 min 49 sec) 
Heartbeat CPU  0 instructions:  237000002 cycles:  322735913 heartbeat IPC: 0.67007 cumulative IPC: 0.56228 (Simulation time: 0 hr 11 min 53 sec) 
Heartbeat CPU  0 instructions:  238000000 cycles:  324272861 heartbeat IPC: 0.65064 cumulative IPC: 0.56283 (Simulation time: 0 hr 11 min 56 sec) 
Heartbeat CPU  0 instructions:  239000000 cycles:  325812026 heartbeat IPC: 0.64970 cumulative IPC: 0.56338 (Simulation time: 0 hr 11 min 59 sec) 
Heartbeat CPU  0 instructions:  240000000 cycles:  327287677 heartbeat IPC: 0.67767 cumulative IPC: 0.56406 (Simulation time: 0 hr 12 min 2 sec) 
Heartbeat CPU  0 instructions:  241000002 cycles:  328799272 heartbeat IPC: 0.66155 cumulative IPC: 0.56465 (Simulation time: 0 hr 12 min 5 sec) 
Heartbeat CPU  0 instructions:  242000000 cycles:  330300481 heartbeat IPC: 0.66613 cumulative IPC: 0.56525 (Simulation time: 0 hr 12 min 8 sec) 
Heartbeat CPU  0 instructions:  243000003 cycles:  331776650 heartbeat IPC: 0.67743 cumulative IPC: 0.56591 (Simulation time: 0 hr 12 min 12 sec) 
Heartbeat CPU  0 instructions:  244000000 cycles:  333280919 heartbeat IPC: 0.66477 cumulative IPC: 0.56649 (Simulation time: 0 hr 12 min 15 sec) 
Heartbeat CPU  0 instructions:  245000002 cycles:  334763081 heartbeat IPC: 0.67469 cumulative IPC: 0.56712 (Simulation time: 0 hr 12 min 18 sec) 
Heartbeat CPU  0 instructions:  246000003 cycles:  336252787 heartbeat IPC: 0.67127 cumulative IPC: 0.56772 (Simulation time: 0 hr 12 min 21 sec) 
Heartbeat CPU  0 instructions:  247000002 cycles:  337763296 heartbeat IPC: 0.66203 cumulative IPC: 0.56827 (Simulation time: 0 hr 12 min 24 sec) 
Heartbeat CPU  0 instructions:  248000000 cycles:  339246574 heartbeat IPC: 0.67418 cumulative IPC: 0.56888 (Simulation time: 0 hr 12 min 27 sec) 
Heartbeat CPU  0 instructions:  249000002 cycles:  340772458 heartbeat IPC: 0.65536 cumulative IPC: 0.56938 (Simulation time: 0 hr 12 min 30 sec) 
Heartbeat CPU  0 instructions:  250000003 cycles:  342285992 heartbeat IPC: 0.66071 cumulative IPC: 0.56991 (Simulation time: 0 hr 12 min 34 sec) 
Heartbeat CPU  0 instructions:  251000001 cycles:  343787734 heartbeat IPC: 0.66589 cumulative IPC: 0.57045 (Simulation time: 0 hr 12 min 37 sec) 
Heartbeat CPU  0 instructions:  252000000 cycles:  345292619 heartbeat IPC: 0.66450 cumulative IPC: 0.57098 (Simulation time: 0 hr 12 min 40 sec) 
Heartbeat CPU  0 instructions:  253000000 cycles:  346830243 heartbeat IPC: 0.65035 cumulative IPC: 0.57144 (Simulation time: 0 hr 12 min 43 sec) 
Heartbeat CPU  0 instructions:  254000003 cycles:  348311383 heartbeat IPC: 0.67516 cumulative IPC: 0.57201 (Simulation time: 0 hr 12 min 46 sec) 
Heartbeat CPU  0 instructions:  255000000 cycles:  349806520 heartbeat IPC: 0.66883 cumulative IPC: 0.57254 (Simulation time: 0 hr 12 min 49 sec) 
Heartbeat CPU  0 instructions:  256000000 cycles:  351338144 heartbeat IPC: 0.65290 cumulative IPC: 0.57300 (Simulation time: 0 hr 12 min 53 sec) 
Heartbeat CPU  0 instructions:  257000003 cycles:  352832511 heartbeat IPC: 0.66918 cumulative IPC: 0.57352 (Simulation time: 0 hr 12 min 56 sec) 
Heartbeat CPU  0 instructions:  258000003 cycles:  354334636 heartbeat IPC: 0.66572 cumulative IPC: 0.57402 (Simulation time: 0 hr 12 min 59 sec) 
Heartbeat CPU  0 instructions:  259000002 cycles:  355821924 heartbeat IPC: 0.67236 cumulative IPC: 0.57455 (Simulation time: 0 hr 13 min 2 sec) 
Heartbeat CPU  0 instructions:  260000000 cycles:  357313664 heartbeat IPC: 0.67036 cumulative IPC: 0.57507 (Simulation time: 0 hr 13 min 5 sec) 
Heartbeat CPU  0 instructions:  261000000 cycles:  358826176 heartbeat IPC: 0.66115 cumulative IPC: 0.57553 (Simulation time: 0 hr 13 min 8 sec) 
Heartbeat CPU  0 instructions:  262000001 cycles:  360324682 heartbeat IPC: 0.66733 cumulative IPC: 0.57602 (Simulation time: 0 hr 13 min 12 sec) 
Heartbeat CPU  0 instructions:  263000002 cycles:  361842629 heartbeat IPC: 0.65879 cumulative IPC: 0.57647 (Simulation time: 0 hr 13 min 15 sec) 
Heartbeat CPU  0 instructions:  264000000 cycles:  363378370 heartbeat IPC: 0.65115 cumulative IPC: 0.57687 (Simulation time: 0 hr 13 min 18 sec) 
Heartbeat CPU  0 instructions:  265000003 cycles:  364886618 heartbeat IPC: 0.66302 cumulative IPC: 0.57732 (Simulation time: 0 hr 13 min 21 sec) 
Heartbeat CPU  0 instructions:  266000002 cycles:  366390073 heartbeat IPC: 0.66513 cumulative IPC: 0.57778 (Simulation time: 0 hr 13 min 24 sec) 
Heartbeat CPU  0 instructions:  267000003 cycles:  367936500 heartbeat IPC: 0.64665 cumulative IPC: 0.57815 (Simulation time: 0 hr 13 min 28 sec) 
Heartbeat CPU  0 instructions:  268000000 cycles:  369415308 heartbeat IPC: 0.67622 cumulative IPC: 0.57865 (Simulation time: 0 hr 13 min 31 sec) 
Heartbeat CPU  0 instructions:  269000002 cycles:  370912557 heartbeat IPC: 0.66789 cumulative IPC: 0.57911 (Simulation time: 0 hr 13 min 34 sec) 
Heartbeat CPU  0 instructions:  270000001 cycles:  372431486 heartbeat IPC: 0.65836 cumulative IPC: 0.57952 (Simulation time: 0 hr 13 min 37 sec) 
Heartbeat CPU  0 instructions:  271000000 cycles:  373901882 heartbeat IPC: 0.68009 cumulative IPC: 0.58002 (Simulation time: 0 hr 13 min 40 sec) 
Heartbeat CPU  0 instructions:  272000000 cycles:  375400110 heartbeat IPC: 0.66746 cumulative IPC: 0.58046 (Simulation time: 0 hr 13 min 43 sec) 
Heartbeat CPU  0 instructions:  273000001 cycles:  376919169 heartbeat IPC: 0.65830 cumulative IPC: 0.58086 (Simulation time: 0 hr 13 min 47 sec) 
Heartbeat CPU  0 instructions:  274000000 cycles:  378416694 heartbeat IPC: 0.66777 cumulative IPC: 0.58130 (Simulation time: 0 hr 13 min 50 sec) 
Heartbeat CPU  0 instructions:  275000002 cycles:  379937641 heartbeat IPC: 0.65749 cumulative IPC: 0.58168 (Simulation time: 0 hr 13 min 53 sec) 
Heartbeat CPU  0 instructions:  276000000 cycles:  381428755 heartbeat IPC: 0.67064 cumulative IPC: 0.58212 (Simulation time: 0 hr 13 min 56 sec) 
Heartbeat CPU  0 instructions:  277000001 cycles:  382941448 heartbeat IPC: 0.66107 cumulative IPC: 0.58251 (Simulation time: 0 hr 13 min 59 sec) 
Heartbeat CPU  0 instructions:  278000003 cycles:  384459205 heartbeat IPC: 0.65887 cumulative IPC: 0.58289 (Simulation time: 0 hr 14 min 2 sec) 
Heartbeat CPU  0 instructions:  279000002 cycles:  385945455 heartbeat IPC: 0.67283 cumulative IPC: 0.58333 (Simulation time: 0 hr 14 min 6 sec) 
Heartbeat CPU  0 instructions:  280000000 cycles:  387428988 heartbeat IPC: 0.67407 cumulative IPC: 0.58376 (Simulation time: 0 hr 14 min 9 sec) 
Heartbeat CPU  0 instructions:  281000001 cycles:  388958123 heartbeat IPC: 0.65397 cumulative IPC: 0.58411 (Simulation time: 0 hr 14 min 12 sec) 
Heartbeat CPU  0 instructions:  282000002 cycles:  390442382 heartbeat IPC: 0.67374 cumulative IPC: 0.58454 (Simulation time: 0 hr 14 min 15 sec) 
Heartbeat CPU  0 instructions:  283000001 cycles:  391940440 heartbeat IPC: 0.66753 cumulative IPC: 0.58493 (Simulation time: 0 hr 14 min 18 sec) 
Heartbeat CPU  0 instructions:  284000000 cycles:  393453581 heartbeat IPC: 0.66088 cumulative IPC: 0.58530 (Simulation time: 0 hr 14 min 21 sec) 
Heartbeat CPU  0 instructions:  285000001 cycles:  394945703 heartbeat IPC: 0.67019 cumulative IPC: 0.58570 (Simulation time: 0 hr 14 min 25 sec) 
Heartbeat CPU  0 instructions:  286000002 cycles:  396450412 heartbeat IPC: 0.66458 cumulative IPC: 0.58608 (Simulation time: 0 hr 14 min 28 sec) 
Heartbeat CPU  0 instructions:  287000000 cycles:  397960650 heartbeat IPC: 0.66215 cumulative IPC: 0.58644 (Simulation time: 0 hr 14 min 31 sec) 
Heartbeat CPU  0 instructions:  288000000 cycles:  399456317 heartbeat IPC: 0.66860 cumulative IPC: 0.58682 (Simulation time: 0 hr 14 min 34 sec) 
Heartbeat CPU  0 instructions:  289000003 cycles:  400951523 heartbeat IPC: 0.66881 cumulative IPC: 0.58720 (Simulation time: 0 hr 14 min 37 sec) 
Heartbeat CPU  0 instructions:  290000000 cycles:  402461112 heartbeat IPC: 0.66243 cumulative IPC: 0.58755 (Simulation time: 0 hr 14 min 40 sec) 
Heartbeat CPU  0 instructions:  291000000 cycles:  403946587 heartbeat IPC: 0.67319 cumulative IPC: 0.58794 (Simulation time: 0 hr 14 min 44 sec) 
Heartbeat CPU  0 instructions:  292000000 cycles:  405488671 heartbeat IPC: 0.64847 cumulative IPC: 0.58823 (Simulation time: 0 hr 14 min 47 sec) 
Heartbeat CPU  0 instructions:  293000003 cycles:  406999389 heartbeat IPC: 0.66194 cumulative IPC: 0.58857 (Simulation time: 0 hr 14 min 50 sec) 
Heartbeat CPU  0 instructions:  294000000 cycles:  408477996 heartbeat IPC: 0.67631 cumulative IPC: 0.58896 (Simulation time: 0 hr 14 min 53 sec) 
Heartbeat CPU  0 instructions:  295000001 cycles:  410008007 heartbeat IPC: 0.65359 cumulative IPC: 0.58926 (Simulation time: 0 hr 14 min 56 sec) 
Heartbeat CPU  0 instructions:  296000000 cycles:  411499674 heartbeat IPC: 0.67039 cumulative IPC: 0.58963 (Simulation time: 0 hr 14 min 59 sec) 
Heartbeat CPU  0 instructions:  297000003 cycles:  412989475 heartbeat IPC: 0.67123 cumulative IPC: 0.58999 (Simulation time: 0 hr 15 min 3 sec) 
Heartbeat CPU  0 instructions:  298000000 cycles:  414505880 heartbeat IPC: 0.65945 cumulative IPC: 0.59030 (Simulation time: 0 hr 15 min 6 sec) 
Heartbeat CPU  0 instructions:  299000001 cycles:  416014550 heartbeat IPC: 0.66284 cumulative IPC: 0.59063 (Simulation time: 0 hr 15 min 9 sec) 
Heartbeat CPU  0 instructions:  300000000 cycles:  417521187 heartbeat IPC: 0.66373 cumulative IPC: 0.59095 (Simulation time: 0 hr 15 min 12 sec) 
Heartbeat CPU  0 instructions:  301000002 cycles:  419045469 heartbeat IPC: 0.65605 cumulative IPC: 0.59125 (Simulation time: 0 hr 15 min 15 sec) 
Heartbeat CPU  0 instructions:  302000001 cycles:  420567523 heartbeat IPC: 0.65701 cumulative IPC: 0.59154 (Simulation time: 0 hr 15 min 18 sec) 
Heartbeat CPU  0 instructions:  303000002 cycles:  422066767 heartbeat IPC: 0.66700 cumulative IPC: 0.59187 (Simulation time: 0 hr 15 min 22 sec) 
Heartbeat CPU  0 instructions:  304000000 cycles:  423600787 heartbeat IPC: 0.65188 cumulative IPC: 0.59214 (Simulation time: 0 hr 15 min 25 sec) 
Heartbeat CPU  0 instructions:  305000001 cycles:  425076781 heartbeat IPC: 0.67751 cumulative IPC: 0.59250 (Simulation time: 0 hr 15 min 28 sec) 
Heartbeat CPU  0 instructions:  306000000 cycles:  426588167 heartbeat IPC: 0.66164 cumulative IPC: 0.59280 (Simulation time: 0 hr 15 min 31 sec) 
Heartbeat CPU  0 instructions:  307000000 cycles:  428079382 heartbeat IPC: 0.67059 cumulative IPC: 0.59313 (Simulation time: 0 hr 15 min 34 sec) 
Heartbeat CPU  0 instructions:  308000000 cycles:  429567997 heartbeat IPC: 0.67177 cumulative IPC: 0.59347 (Simulation time: 0 hr 15 min 37 sec) 
Heartbeat CPU  0 instructions:  309000002 cycles:  431060949 heartbeat IPC: 0.66982 cumulative IPC: 0.59379 (Simulation time: 0 hr 15 min 40 sec) 
Heartbeat CPU  0 instructions:  310000000 cycles:  432523842 heartbeat IPC: 0.68358 cumulative IPC: 0.59416 (Simulation time: 0 hr 15 min 43 sec) 
Heartbeat CPU  0 instructions:  311000002 cycles:  434046331 heartbeat IPC: 0.65682 cumulative IPC: 0.59443 (Simulation time: 0 hr 15 min 46 sec) 
Heartbeat CPU  0 instructions:  312000000 cycles:  435587236 heartbeat IPC: 0.64897 cumulative IPC: 0.59467 (Simulation time: 0 hr 15 min 50 sec) 
Heartbeat CPU  0 instructions:  313000003 cycles:  437052388 heartbeat IPC: 0.68253 cumulative IPC: 0.59503 (Simulation time: 0 hr 15 min 53 sec) 
Heartbeat CPU  0 instructions:  314000000 cycles:  438599888 heartbeat IPC: 0.64620 cumulative IPC: 0.59525 (Simulation time: 0 hr 15 min 56 sec) 
Heartbeat CPU  0 instructions:  315000003 cycles:  440092513 heartbeat IPC: 0.66996 cumulative IPC: 0.59556 (Simulation time: 0 hr 15 min 59 sec) 
Heartbeat CPU  0 instructions:  316000000 cycles:  441595238 heartbeat IPC: 0.66546 cumulative IPC: 0.59585 (Simulation time: 0 hr 16 min 2 sec) 
Heartbeat CPU  0 instructions:  317000001 cycles:  443109391 heartbeat IPC: 0.66044 cumulative IPC: 0.59611 (Simulation time: 0 hr 16 min 5 sec) 
Heartbeat CPU  0 instructions:  318000000 cycles:  444608246 heartbeat IPC: 0.66718 cumulative IPC: 0.59641 (Simulation time: 0 hr 16 min 9 sec) 
Heartbeat CPU  0 instructions:  319000000 cycles:  446129313 heartbeat IPC: 0.65743 cumulative IPC: 0.59666 (Simulation time: 0 hr 16 min 12 sec) 
Heartbeat CPU  0 instructions:  320000000 cycles:  447630467 heartbeat IPC: 0.66615 cumulative IPC: 0.59694 (Simulation time: 0 hr 16 min 15 sec) 
Heartbeat CPU  0 instructions:  321000000 cycles:  449139989 heartbeat IPC: 0.66246 cumulative IPC: 0.59721 (Simulation time: 0 hr 16 min 18 sec) 
Heartbeat CPU  0 instructions:  322000003 cycles:  450654356 heartbeat IPC: 0.66034 cumulative IPC: 0.59747 (Simulation time: 0 hr 16 min 21 sec) 
Heartbeat CPU  0 instructions:  323000003 cycles:  452137684 heartbeat IPC: 0.67416 cumulative IPC: 0.59777 (Simulation time: 0 hr 16 min 24 sec) 
Heartbeat CPU  0 instructions:  324000000 cycles:  453671923 heartbeat IPC: 0.65179 cumulative IPC: 0.59799 (Simulation time: 0 hr 16 min 28 sec) 
Heartbeat CPU  0 instructions:  325000002 cycles:  455156556 heartbeat IPC: 0.67357 cumulative IPC: 0.59829 (Simulation time: 0 hr 16 min 31 sec) 
Heartbeat CPU  0 instructions:  326000000 cycles:  456680571 heartbeat IPC: 0.65616 cumulative IPC: 0.59852 (Simulation time: 0 hr 16 min 34 sec) 
Heartbeat CPU  0 instructions:  327000001 cycles:  458220396 heartbeat IPC: 0.64943 cumulative IPC: 0.59873 (Simulation time: 0 hr 16 min 37 sec) 
Heartbeat CPU  0 instructions:  328000000 cycles:  459704407 heartbeat IPC: 0.67385 cumulative IPC: 0.59902 (Simulation time: 0 hr 16 min 40 sec) 
Heartbeat CPU  0 instructions:  329000002 cycles:  461230513 heartbeat IPC: 0.65526 cumulative IPC: 0.59925 (Simulation time: 0 hr 16 min 43 sec) 
Heartbeat CPU  0 instructions:  330000003 cycles:  462722648 heartbeat IPC: 0.67018 cumulative IPC: 0.59952 (Simulation time: 0 hr 16 min 47 sec) 
Heartbeat CPU  0 instructions:  331000003 cycles:  464225492 heartbeat IPC: 0.66541 cumulative IPC: 0.59978 (Simulation time: 0 hr 16 min 50 sec) 
Heartbeat CPU  0 instructions:  332000000 cycles:  465726512 heartbeat IPC: 0.66621 cumulative IPC: 0.60004 (Simulation time: 0 hr 16 min 53 sec) 
Heartbeat CPU  0 instructions:  333000003 cycles:  467227576 heartbeat IPC: 0.66620 cumulative IPC: 0.60030 (Simulation time: 0 hr 16 min 56 sec) 
Heartbeat CPU  0 instructions:  334000000 cycles:  468745408 heartbeat IPC: 0.65883 cumulative IPC: 0.60052 (Simulation time: 0 hr 16 min 59 sec) 
Heartbeat CPU  0 instructions:  335000002 cycles:  470246005 heartbeat IPC: 0.66640 cumulative IPC: 0.60078 (Simulation time: 0 hr 17 min 2 sec) 
Heartbeat CPU  0 instructions:  336000000 cycles:  471766263 heartbeat IPC: 0.65778 cumulative IPC: 0.60100 (Simulation time: 0 hr 17 min 6 sec) 
Heartbeat CPU  0 instructions:  337000000 cycles:  473266717 heartbeat IPC: 0.66646 cumulative IPC: 0.60125 (Simulation time: 0 hr 17 min 9 sec) 
Heartbeat CPU  0 instructions:  338000002 cycles:  474759470 heartbeat IPC: 0.66990 cumulative IPC: 0.60150 (Simulation time: 0 hr 17 min 12 sec) 
Heartbeat CPU  0 instructions:  339000001 cycles:  476293738 heartbeat IPC: 0.65178 cumulative IPC: 0.60170 (Simulation time: 0 hr 17 min 15 sec) 
Heartbeat CPU  0 instructions:  340000000 cycles:  477784125 heartbeat IPC: 0.67097 cumulative IPC: 0.60196 (Simulation time: 0 hr 17 min 18 sec) 
Heartbeat CPU  0 instructions:  341000002 cycles:  479293282 heartbeat IPC: 0.66262 cumulative IPC: 0.60219 (Simulation time: 0 hr 17 min 21 sec) 
Heartbeat CPU  0 instructions:  342000003 cycles:  480802958 heartbeat IPC: 0.66239 cumulative IPC: 0.60241 (Simulation time: 0 hr 17 min 25 sec) 
Heartbeat CPU  0 instructions:  343000000 cycles:  482297264 heartbeat IPC: 0.66920 cumulative IPC: 0.60266 (Simulation time: 0 hr 17 min 28 sec) 
Heartbeat CPU  0 instructions:  344000000 cycles:  483811717 heartbeat IPC: 0.66030 cumulative IPC: 0.60288 (Simulation time: 0 hr 17 min 31 sec) 
Heartbeat CPU  0 instructions:  345000003 cycles:  485325797 heartbeat IPC: 0.66047 cumulative IPC: 0.60309 (Simulation time: 0 hr 17 min 34 sec) 
Heartbeat CPU  0 instructions:  346000000 cycles:  486836671 heartbeat IPC: 0.66187 cumulative IPC: 0.60331 (Simulation time: 0 hr 17 min 37 sec) 
Heartbeat CPU  0 instructions:  347000003 cycles:  488344562 heartbeat IPC: 0.66318 cumulative IPC: 0.60353 (Simulation time: 0 hr 17 min 40 sec) 
Heartbeat CPU  0 instructions:  348000000 cycles:  489833130 heartbeat IPC: 0.67178 cumulative IPC: 0.60378 (Simulation time: 0 hr 17 min 44 sec) 
Heartbeat CPU  0 instructions:  349000000 cycles:  491347431 heartbeat IPC: 0.66037 cumulative IPC: 0.60398 (Simulation time: 0 hr 17 min 47 sec) 
Heartbeat CPU  0 instructions:  350000003 cycles:  492826689 heartbeat IPC: 0.67602 cumulative IPC: 0.60424 (Simulation time: 0 hr 17 min 50 sec) 
Heartbeat CPU  0 instructions:  351000001 cycles:  494355035 heartbeat IPC: 0.65430 cumulative IPC: 0.60443 (Simulation time: 0 hr 17 min 53 sec) 
Heartbeat CPU  0 instructions:  352000000 cycles:  495868569 heartbeat IPC: 0.66070 cumulative IPC: 0.60463 (Simulation time: 0 hr 17 min 56 sec) 
Heartbeat CPU  0 instructions:  353000003 cycles:  497373025 heartbeat IPC: 0.66469 cumulative IPC: 0.60485 (Simulation time: 0 hr 18 min 0 sec) 
Heartbeat CPU  0 instructions:  354000000 cycles:  498892855 heartbeat IPC: 0.65797 cumulative IPC: 0.60504 (Simulation time: 0 hr 18 min 3 sec) 
Heartbeat CPU  0 instructions:  355000000 cycles:  500409401 heartbeat IPC: 0.65939 cumulative IPC: 0.60523 (Simulation time: 0 hr 18 min 6 sec) 
Heartbeat CPU  0 instructions:  356000000 cycles:  501906007 heartbeat IPC: 0.66818 cumulative IPC: 0.60546 (Simulation time: 0 hr 18 min 9 sec) 
Heartbeat CPU  0 instructions:  357000002 cycles:  503434353 heartbeat IPC: 0.65430 cumulative IPC: 0.60563 (Simulation time: 0 hr 18 min 12 sec) 
Heartbeat CPU  0 instructions:  358000003 cycles:  504935975 heartbeat IPC: 0.66595 cumulative IPC: 0.60585 (Simulation time: 0 hr 18 min 15 sec) 
Heartbeat CPU  0 instructions:  359000000 cycles:  506466896 heartbeat IPC: 0.65320 cumulative IPC: 0.60602 (Simulation time: 0 hr 18 min 19 sec) 
Heartbeat CPU  0 instructions:  360000000 cycles:  507985609 heartbeat IPC: 0.65845 cumulative IPC: 0.60620 (Simulation time: 0 hr 18 min 22 sec) 
Heartbeat CPU  0 instructions:  361000002 cycles:  509476721 heartbeat IPC: 0.67064 cumulative IPC: 0.60642 (Simulation time: 0 hr 18 min 25 sec) 
Heartbeat CPU  0 instructions:  362000003 cycles:  510979855 heartbeat IPC: 0.66528 cumulative IPC: 0.60663 (Simulation time: 0 hr 18 min 28 sec) 
Heartbeat CPU  0 instructions:  363000003 cycles:  512485210 heartbeat IPC: 0.66430 cumulative IPC: 0.60683 (Simulation time: 0 hr 18 min 31 sec) 
Heartbeat CPU  0 instructions:  364000000 cycles:  514013324 heartbeat IPC: 0.65440 cumulative IPC: 0.60700 (Simulation time: 0 hr 18 min 35 sec) 
Heartbeat CPU  0 instructions:  365000003 cycles:  515501845 heartbeat IPC: 0.67181 cumulative IPC: 0.60722 (Simulation time: 0 hr 18 min 38 sec) 
Heartbeat CPU  0 instructions:  366000000 cycles:  517026259 heartbeat IPC: 0.65599 cumulative IPC: 0.60739 (Simulation time: 0 hr 18 min 41 sec) 
Heartbeat CPU  0 instructions:  367000001 cycles:  518545855 heartbeat IPC: 0.65807 cumulative IPC: 0.60756 (Simulation time: 0 hr 18 min 44 sec) 
Heartbeat CPU  0 instructions:  368000000 cycles:  520035763 heartbeat IPC: 0.67118 cumulative IPC: 0.60778 (Simulation time: 0 hr 18 min 47 sec) 
Heartbeat CPU  0 instructions:  369000003 cycles:  521548804 heartbeat IPC: 0.66092 cumulative IPC: 0.60796 (Simulation time: 0 hr 18 min 50 sec) 
Heartbeat CPU  0 instructions:  370000000 cycles:  523053054 heartbeat IPC: 0.66478 cumulative IPC: 0.60815 (Simulation time: 0 hr 18 min 54 sec) 
Heartbeat CPU  0 instructions:  371000000 cycles:  524574157 heartbeat IPC: 0.65742 cumulative IPC: 0.60832 (Simulation time: 0 hr 18 min 57 sec) 
Heartbeat CPU  0 instructions:  372000000 cycles:  526111502 heartbeat IPC: 0.65047 cumulative IPC: 0.60847 (Simulation time: 0 hr 19 min 0 sec) 
Heartbeat CPU  0 instructions:  373000000 cycles:  527601844 heartbeat IPC: 0.67099 cumulative IPC: 0.60867 (Simulation time: 0 hr 19 min 3 sec) 
Heartbeat CPU  0 instructions:  374000003 cycles:  529136054 heartbeat IPC: 0.65180 cumulative IPC: 0.60882 (Simulation time: 0 hr 19 min 6 sec) 
Heartbeat CPU  0 instructions:  375000002 cycles:  530608796 heartbeat IPC: 0.67900 cumulative IPC: 0.60905 (Simulation time: 0 hr 19 min 9 sec) 
Heartbeat CPU  0 instructions:  376000000 cycles:  532141405 heartbeat IPC: 0.65248 cumulative IPC: 0.60920 (Simulation time: 0 hr 19 min 13 sec) 
Heartbeat CPU  0 instructions:  377000003 cycles:  533623407 heartbeat IPC: 0.67476 cumulative IPC: 0.60941 (Simulation time: 0 hr 19 min 16 sec) 
Heartbeat CPU  0 instructions:  378000000 cycles:  535121958 heartbeat IPC: 0.66731 cumulative IPC: 0.60960 (Simulation time: 0 hr 19 min 19 sec) 
Heartbeat CPU  0 instructions:  379000001 cycles:  536625874 heartbeat IPC: 0.66493 cumulative IPC: 0.60978 (Simulation time: 0 hr 19 min 22 sec) 
Heartbeat CPU  0 instructions:  380000000 cycles:  538098417 heartbeat IPC: 0.67910 cumulative IPC: 0.61000 (Simulation time: 0 hr 19 min 25 sec) 
Heartbeat CPU  0 instructions:  381000002 cycles:  539611973 heartbeat IPC: 0.66070 cumulative IPC: 0.61017 (Simulation time: 0 hr 19 min 28 sec) 
Heartbeat CPU  0 instructions:  382000003 cycles:  541130144 heartbeat IPC: 0.65869 cumulative IPC: 0.61033 (Simulation time: 0 hr 19 min 32 sec) 
Heartbeat CPU  0 instructions:  383000000 cycles:  542633237 heartbeat IPC: 0.66529 cumulative IPC: 0.61051 (Simulation time: 0 hr 19 min 35 sec) 
Heartbeat CPU  0 instructions:  384000000 cycles:  544163436 heartbeat IPC: 0.65351 cumulative IPC: 0.61065 (Simulation time: 0 hr 19 min 38 sec) 
Heartbeat CPU  0 instructions:  385000003 cycles:  545640601 heartbeat IPC: 0.67697 cumulative IPC: 0.61086 (Simulation time: 0 hr 19 min 41 sec) 
Heartbeat CPU  0 instructions:  386000000 cycles:  547171012 heartbeat IPC: 0.65342 cumulative IPC: 0.61100 (Simulation time: 0 hr 19 min 44 sec) 
Heartbeat CPU  0 instructions:  387000002 cycles:  548656886 heartbeat IPC: 0.67301 cumulative IPC: 0.61120 (Simulation time: 0 hr 19 min 47 sec) 
Heartbeat CPU  0 instructions:  388000000 cycles:  550196434 heartbeat IPC: 0.64954 cumulative IPC: 0.61132 (Simulation time: 0 hr 19 min 51 sec) 
Heartbeat CPU  0 instructions:  389000000 cycles:  551714631 heartbeat IPC: 0.65868 cumulative IPC: 0.61147 (Simulation time: 0 hr 19 min 54 sec) 
Heartbeat CPU  0 instructions:  390000000 cycles:  553196834 heartbeat IPC: 0.67467 cumulative IPC: 0.61167 (Simulation time: 0 hr 19 min 57 sec) 
Heartbeat CPU  0 instructions:  391000003 cycles:  554710778 heartbeat IPC: 0.66053 cumulative IPC: 0.61183 (Simulation time: 0 hr 20 min 0 sec) 
Heartbeat CPU  0 instructions:  392000000 cycles:  556194330 heartbeat IPC: 0.67406 cumulative IPC: 0.61202 (Simulation time: 0 hr 20 min 3 sec) 
Heartbeat CPU  0 instructions:  393000000 cycles:  557683612 heartbeat IPC: 0.67146 cumulative IPC: 0.61220 (Simulation time: 0 hr 20 min 7 sec) 
Heartbeat CPU  0 instructions:  394000000 cycles:  559218681 heartbeat IPC: 0.65144 cumulative IPC: 0.61233 (Simulation time: 0 hr 20 min 10 sec) 
Heartbeat CPU  0 instructions:  395000000 cycles:  560694800 heartbeat IPC: 0.67745 cumulative IPC: 0.61253 (Simulation time: 0 hr 20 min 13 sec) 
Heartbeat CPU  0 instructions:  396000000 cycles:  562225394 heartbeat IPC: 0.65334 cumulative IPC: 0.61266 (Simulation time: 0 hr 20 min 16 sec) 
Heartbeat CPU  0 instructions:  397000000 cycles:  563731660 heartbeat IPC: 0.66389 cumulative IPC: 0.61282 (Simulation time: 0 hr 20 min 19 sec) 
Heartbeat CPU  0 instructions:  398000001 cycles:  565243006 heartbeat IPC: 0.66166 cumulative IPC: 0.61297 (Simulation time: 0 hr 20 min 23 sec) 
Heartbeat CPU  0 instructions:  399000002 cycles:  566773289 heartbeat IPC: 0.65347 cumulative IPC: 0.61310 (Simulation time: 0 hr 20 min 26 sec) 
Heartbeat CPU  0 instructions:  400000000 cycles:  568267937 heartbeat IPC: 0.66905 cumulative IPC: 0.61327 (Simulation time: 0 hr 20 min 29 sec) 
Heartbeat CPU  0 instructions:  401000002 cycles:  569806807 heartbeat IPC: 0.64983 cumulative IPC: 0.61338 (Simulation time: 0 hr 20 min 32 sec) 
Heartbeat CPU  0 instructions:  402000003 cycles:  571292071 heartbeat IPC: 0.67328 cumulative IPC: 0.61356 (Simulation time: 0 hr 20 min 35 sec) 
Heartbeat CPU  0 instructions:  403000000 cycles:  572814950 heartbeat IPC: 0.65665 cumulative IPC: 0.61370 (Simulation time: 0 hr 20 min 38 sec) 
Heartbeat CPU  0 instructions:  404000000 cycles:  574334354 heartbeat IPC: 0.65815 cumulative IPC: 0.61383 (Simulation time: 0 hr 20 min 42 sec) 
Heartbeat CPU  0 instructions:  405000003 cycles:  575827175 heartbeat IPC: 0.66987 cumulative IPC: 0.61400 (Simulation time: 0 hr 20 min 45 sec) 
Heartbeat CPU  0 instructions:  406000000 cycles:  577337944 heartbeat IPC: 0.66191 cumulative IPC: 0.61415 (Simulation time: 0 hr 20 min 48 sec) 
Heartbeat CPU  0 instructions:  407000001 cycles:  578837102 heartbeat IPC: 0.66704 cumulative IPC: 0.61430 (Simulation time: 0 hr 20 min 51 sec) 
Heartbeat CPU  0 instructions:  408000000 cycles:  580339684 heartbeat IPC: 0.66552 cumulative IPC: 0.61446 (Simulation time: 0 hr 20 min 54 sec) 
Heartbeat CPU  0 instructions:  409000002 cycles:  581880867 heartbeat IPC: 0.64885 cumulative IPC: 0.61456 (Simulation time: 0 hr 20 min 58 sec) 
Heartbeat CPU  0 instructions:  410000000 cycles:  583374168 heartbeat IPC: 0.66966 cumulative IPC: 0.61473 (Simulation time: 0 hr 21 min 1 sec) 
Heartbeat CPU  0 instructions:  411000001 cycles:  584899053 heartbeat IPC: 0.65579 cumulative IPC: 0.61485 (Simulation time: 0 hr 21 min 4 sec) 
Heartbeat CPU  0 instructions:  412000000 cycles:  586392905 heartbeat IPC: 0.66941 cumulative IPC: 0.61501 (Simulation time: 0 hr 21 min 7 sec) 
Heartbeat CPU  0 instructions:  413000002 cycles:  587939068 heartbeat IPC: 0.64676 cumulative IPC: 0.61511 (Simulation time: 0 hr 21 min 10 sec) 
Heartbeat CPU  0 instructions:  414000001 cycles:  589453883 heartbeat IPC: 0.66015 cumulative IPC: 0.61524 (Simulation time: 0 hr 21 min 14 sec) 
Heartbeat CPU  0 instructions:  415000002 cycles:  590974221 heartbeat IPC: 0.65775 cumulative IPC: 0.61537 (Simulation time: 0 hr 21 min 17 sec) 
Heartbeat CPU  0 instructions:  416000000 cycles:  592495132 heartbeat IPC: 0.65750 cumulative IPC: 0.61549 (Simulation time: 0 hr 21 min 20 sec) 
Heartbeat CPU  0 instructions:  417000003 cycles:  593975711 heartbeat IPC: 0.67541 cumulative IPC: 0.61566 (Simulation time: 0 hr 21 min 23 sec) 
Heartbeat CPU  0 instructions:  418000000 cycles:  595496930 heartbeat IPC: 0.65737 cumulative IPC: 0.61579 (Simulation time: 0 hr 21 min 26 sec) 
Heartbeat CPU  0 instructions:  419000001 cycles:  597009058 heartbeat IPC: 0.66132 cumulative IPC: 0.61592 (Simulation time: 0 hr 21 min 30 sec) 
Heartbeat CPU  0 instructions:  420000000 cycles:  598497843 heartbeat IPC: 0.67169 cumulative IPC: 0.61608 (Simulation time: 0 hr 21 min 33 sec) 
Heartbeat CPU  0 instructions:  421000000 cycles:  600026968 heartbeat IPC: 0.65397 cumulative IPC: 0.61619 (Simulation time: 0 hr 21 min 36 sec) 
Heartbeat CPU  0 instructions:  422000001 cycles:  601514501 heartbeat IPC: 0.67225 cumulative IPC: 0.61635 (Simulation time: 0 hr 21 min 39 sec) 
Heartbeat CPU  0 instructions:  423000001 cycles:  603020918 heartbeat IPC: 0.66383 cumulative IPC: 0.61649 (Simulation time: 0 hr 21 min 42 sec) 
Heartbeat CPU  0 instructions:  424000000 cycles:  604525161 heartbeat IPC: 0.66479 cumulative IPC: 0.61663 (Simulation time: 0 hr 21 min 46 sec) 
Heartbeat CPU  0 instructions:  425000001 cycles:  606040534 heartbeat IPC: 0.65990 cumulative IPC: 0.61675 (Simulation time: 0 hr 21 min 49 sec) 
Heartbeat CPU  0 instructions:  426000002 cycles:  607561561 heartbeat IPC: 0.65745 cumulative IPC: 0.61687 (Simulation time: 0 hr 21 min 52 sec) 
Heartbeat CPU  0 instructions:  427000000 cycles:  609054589 heartbeat IPC: 0.66978 cumulative IPC: 0.61702 (Simulation time: 0 hr 21 min 55 sec) 
Heartbeat CPU  0 instructions:  428000000 cycles:  610562191 heartbeat IPC: 0.66331 cumulative IPC: 0.61715 (Simulation time: 0 hr 21 min 59 sec) 
Heartbeat CPU  0 instructions:  429000000 cycles:  612060134 heartbeat IPC: 0.66758 cumulative IPC: 0.61729 (Simulation time: 0 hr 22 min 2 sec) 
Heartbeat CPU  0 instructions:  430000000 cycles:  613557995 heartbeat IPC: 0.66762 cumulative IPC: 0.61743 (Simulation time: 0 hr 22 min 5 sec) 
Heartbeat CPU  0 instructions:  431000002 cycles:  615086163 heartbeat IPC: 0.65438 cumulative IPC: 0.61754 (Simulation time: 0 hr 22 min 8 sec) 
Heartbeat CPU  0 instructions:  432000000 cycles:  616595503 heartbeat IPC: 0.66254 cumulative IPC: 0.61766 (Simulation time: 0 hr 22 min 11 sec) 
Heartbeat CPU  0 instructions:  433000001 cycles:  618119760 heartbeat IPC: 0.65606 cumulative IPC: 0.61777 (Simulation time: 0 hr 22 min 15 sec) 
Heartbeat CPU  0 instructions:  434000000 cycles:  619649253 heartbeat IPC: 0.65381 cumulative IPC: 0.61787 (Simulation time: 0 hr 22 min 18 sec) 
Heartbeat CPU  0 instructions:  435000003 cycles:  621163648 heartbeat IPC: 0.66033 cumulative IPC: 0.61799 (Simulation time: 0 hr 22 min 21 sec) 
Heartbeat CPU  0 instructions:  436000000 cycles:  622697147 heartbeat IPC: 0.65210 cumulative IPC: 0.61809 (Simulation time: 0 hr 22 min 25 sec) 
Heartbeat CPU  0 instructions:  437000002 cycles:  624206873 heartbeat IPC: 0.66237 cumulative IPC: 0.61821 (Simulation time: 0 hr 22 min 28 sec) 
Heartbeat CPU  0 instructions:  438000001 cycles:  625737675 heartbeat IPC: 0.65325 cumulative IPC: 0.61831 (Simulation time: 0 hr 22 min 31 sec) 
Heartbeat CPU  0 instructions:  439000000 cycles:  627244733 heartbeat IPC: 0.66354 cumulative IPC: 0.61843 (Simulation time: 0 hr 22 min 34 sec) 
Heartbeat CPU  0 instructions:  440000000 cycles:  628765878 heartbeat IPC: 0.65740 cumulative IPC: 0.61854 (Simulation time: 0 hr 22 min 38 sec) 
Heartbeat CPU  0 instructions:  441000001 cycles:  630310121 heartbeat IPC: 0.64757 cumulative IPC: 0.61862 (Simulation time: 0 hr 22 min 41 sec) 
Heartbeat CPU  0 instructions:  442000000 cycles:  631801219 heartbeat IPC: 0.67065 cumulative IPC: 0.61876 (Simulation time: 0 hr 22 min 44 sec) 
Heartbeat CPU  0 instructions:  443000000 cycles:  633311598 heartbeat IPC: 0.66209 cumulative IPC: 0.61888 (Simulation time: 0 hr 22 min 48 sec) 
Heartbeat CPU  0 instructions:  444000000 cycles:  634854217 heartbeat IPC: 0.64825 cumulative IPC: 0.61896 (Simulation time: 0 hr 22 min 51 sec) 
Heartbeat CPU  0 instructions:  445000002 cycles:  636374096 heartbeat IPC: 0.65795 cumulative IPC: 0.61907 (Simulation time: 0 hr 22 min 54 sec) 
Heartbeat CPU  0 instructions:  446000001 cycles:  637899212 heartbeat IPC: 0.65569 cumulative IPC: 0.61917 (Simulation time: 0 hr 22 min 57 sec) 
Heartbeat CPU  0 instructions:  447000003 cycles:  639409088 heartbeat IPC: 0.66231 cumulative IPC: 0.61928 (Simulation time: 0 hr 23 min 1 sec) 
Heartbeat CPU  0 instructions:  448000000 cycles:  640961853 heartbeat IPC: 0.64401 cumulative IPC: 0.61935 (Simulation time: 0 hr 23 min 4 sec) 
Heartbeat CPU  0 instructions:  449000000 cycles:  642486042 heartbeat IPC: 0.65609 cumulative IPC: 0.61945 (Simulation time: 0 hr 23 min 7 sec) 
Heartbeat CPU  0 instructions:  450000003 cycles:  643984093 heartbeat IPC: 0.66754 cumulative IPC: 0.61958 (Simulation time: 0 hr 23 min 10 sec) 
Heartbeat CPU  0 instructions:  451000000 cycles:  645531152 heartbeat IPC: 0.64639 cumulative IPC: 0.61965 (Simulation time: 0 hr 23 min 14 sec) 
Heartbeat CPU  0 instructions:  452000000 cycles:  647070067 heartbeat IPC: 0.64981 cumulative IPC: 0.61973 (Simulation time: 0 hr 23 min 17 sec) 
Heartbeat CPU  0 instructions:  453000001 cycles:  648585570 heartbeat IPC: 0.65985 cumulative IPC: 0.61984 (Simulation time: 0 hr 23 min 20 sec) 
Heartbeat CPU  0 instructions:  454000002 cycles:  650086741 heartbeat IPC: 0.66615 cumulative IPC: 0.61996 (Simulation time: 0 hr 23 min 24 sec) 
Heartbeat CPU  0 instructions:  455000000 cycles:  651591803 heartbeat IPC: 0.66442 cumulative IPC: 0.62008 (Simulation time: 0 hr 23 min 27 sec) 
Heartbeat CPU  0 instructions:  456000000 cycles:  653130360 heartbeat IPC: 0.64996 cumulative IPC: 0.62016 (Simulation time: 0 hr 23 min 30 sec) 
Heartbeat CPU  0 instructions:  457000002 cycles:  654622023 heartbeat IPC: 0.67039 cumulative IPC: 0.62029 (Simulation time: 0 hr 23 min 34 sec) 
Heartbeat CPU  0 instructions:  458000003 cycles:  656159128 heartbeat IPC: 0.65057 cumulative IPC: 0.62037 (Simulation time: 0 hr 23 min 37 sec) 
Heartbeat CPU  0 instructions:  459000001 cycles:  657663189 heartbeat IPC: 0.66487 cumulative IPC: 0.62049 (Simulation time: 0 hr 23 min 40 sec) 
Heartbeat CPU  0 instructions:  460000000 cycles:  659186815 heartbeat IPC: 0.65633 cumulative IPC: 0.62058 (Simulation time: 0 hr 23 min 43 sec) 
Heartbeat CPU  0 instructions:  461000002 cycles:  660713380 heartbeat IPC: 0.65507 cumulative IPC: 0.62067 (Simulation time: 0 hr 23 min 47 sec) 
Heartbeat CPU  0 instructions:  462000003 cycles:  662233085 heartbeat IPC: 0.65802 cumulative IPC: 0.62077 (Simulation time: 0 hr 23 min 50 sec) 
Heartbeat CPU  0 instructions:  463000002 cycles:  663776714 heartbeat IPC: 0.64782 cumulative IPC: 0.62084 (Simulation time: 0 hr 23 min 53 sec) 
Heartbeat CPU  0 instructions:  464000000 cycles:  665284998 heartbeat IPC: 0.66300 cumulative IPC: 0.62095 (Simulation time: 0 hr 23 min 57 sec) 
Heartbeat CPU  0 instructions:  465000001 cycles:  666793940 heartbeat IPC: 0.66272 cumulative IPC: 0.62106 (Simulation time: 0 hr 24 min 0 sec) 
Heartbeat CPU  0 instructions:  466000000 cycles:  668350711 heartbeat IPC: 0.64235 cumulative IPC: 0.62111 (Simulation time: 0 hr 24 min 3 sec) 
Heartbeat CPU  0 instructions:  467000001 cycles:  669867605 heartbeat IPC: 0.65924 cumulative IPC: 0.62121 (Simulation time: 0 hr 24 min 6 sec) 
Heartbeat CPU  0 instructions:  468000000 cycles:  671396469 heartbeat IPC: 0.65408 cumulative IPC: 0.62129 (Simulation time: 0 hr 24 min 10 sec) 
Heartbeat CPU  0 instructions:  469000002 cycles:  672896897 heartbeat IPC: 0.66648 cumulative IPC: 0.62141 (Simulation time: 0 hr 24 min 13 sec) 
Heartbeat CPU  0 instructions:  470000003 cycles:  674450000 heartbeat IPC: 0.64387 cumulative IPC: 0.62147 (Simulation time: 0 hr 24 min 16 sec) 
Heartbeat CPU  0 instructions:  471000002 cycles:  676008419 heartbeat IPC: 0.64168 cumulative IPC: 0.62152 (Simulation time: 0 hr 24 min 20 sec) 
Heartbeat CPU  0 instructions:  472000000 cycles:  677502600 heartbeat IPC: 0.66926 cumulative IPC: 0.62164 (Simulation time: 0 hr 24 min 23 sec) 
Heartbeat CPU  0 instructions:  473000001 cycles:  679038321 heartbeat IPC: 0.65116 cumulative IPC: 0.62172 (Simulation time: 0 hr 24 min 26 sec) 
Heartbeat CPU  0 instructions:  474000000 cycles:  680583131 heartbeat IPC: 0.64733 cumulative IPC: 0.62178 (Simulation time: 0 hr 24 min 29 sec) 
Heartbeat CPU  0 instructions:  475000001 cycles:  682087645 heartbeat IPC: 0.66467 cumulative IPC: 0.62189 (Simulation time: 0 hr 24 min 33 sec) 
Heartbeat CPU  0 instructions:  476000000 cycles:  683602779 heartbeat IPC: 0.66001 cumulative IPC: 0.62198 (Simulation time: 0 hr 24 min 36 sec) 
Heartbeat CPU  0 instructions:  477000003 cycles:  685099121 heartbeat IPC: 0.66830 cumulative IPC: 0.62210 (Simulation time: 0 hr 24 min 39 sec) 
Heartbeat CPU  0 instructions:  478000002 cycles:  686677582 heartbeat IPC: 0.63353 cumulative IPC: 0.62213 (Simulation time: 0 hr 24 min 43 sec) 
Heartbeat CPU  0 instructions:  479000003 cycles:  688187586 heartbeat IPC: 0.66225 cumulative IPC: 0.62223 (Simulation time: 0 hr 24 min 46 sec) 
Heartbeat CPU  0 instructions:  480000000 cycles:  689702148 heartbeat IPC: 0.66025 cumulative IPC: 0.62232 (Simulation time: 0 hr 24 min 49 sec) 
Heartbeat CPU  0 instructions:  481000000 cycles:  691236087 heartbeat IPC: 0.65192 cumulative IPC: 0.62240 (Simulation time: 0 hr 24 min 52 sec) 
Heartbeat CPU  0 instructions:  482000003 cycles:  692730275 heartbeat IPC: 0.66926 cumulative IPC: 0.62251 (Simulation time: 0 hr 24 min 56 sec) 
Heartbeat CPU  0 instructions:  483000000 cycles:  694263298 heartbeat IPC: 0.65230 cumulative IPC: 0.62258 (Simulation time: 0 hr 24 min 59 sec) 
Heartbeat CPU  0 instructions:  484000000 cycles:  695791741 heartbeat IPC: 0.65426 cumulative IPC: 0.62266 (Simulation time: 0 hr 25 min 2 sec) 
Heartbeat CPU  0 instructions:  485000001 cycles:  697320854 heartbeat IPC: 0.65397 cumulative IPC: 0.62274 (Simulation time: 0 hr 25 min 6 sec) 
Heartbeat CPU  0 instructions:  486000000 cycles:  698846723 heartbeat IPC: 0.65536 cumulative IPC: 0.62282 (Simulation time: 0 hr 25 min 9 sec) 
Heartbeat CPU  0 instructions:  487000001 cycles:  700348457 heartbeat IPC: 0.66590 cumulative IPC: 0.62292 (Simulation time: 0 hr 25 min 12 sec) 
Heartbeat CPU  0 instructions:  488000000 cycles:  701905213 heartbeat IPC: 0.64236 cumulative IPC: 0.62297 (Simulation time: 0 hr 25 min 15 sec) 
Heartbeat CPU  0 instructions:  489000002 cycles:  703443390 heartbeat IPC: 0.65012 cumulative IPC: 0.62304 (Simulation time: 0 hr 25 min 19 sec) 
Heartbeat CPU  0 instructions:  490000001 cycles:  704963894 heartbeat IPC: 0.65768 cumulative IPC: 0.62312 (Simulation time: 0 hr 25 min 22 sec) 
Heartbeat CPU  0 instructions:  491000001 cycles:  706502032 heartbeat IPC: 0.65014 cumulative IPC: 0.62319 (Simulation time: 0 hr 25 min 25 sec) 
Heartbeat CPU  0 instructions:  492000000 cycles:  708022876 heartbeat IPC: 0.65753 cumulative IPC: 0.62327 (Simulation time: 0 hr 25 min 28 sec) 
Heartbeat CPU  0 instructions:  493000003 cycles:  709577786 heartbeat IPC: 0.64313 cumulative IPC: 0.62332 (Simulation time: 0 hr 25 min 32 sec) 
Heartbeat CPU  0 instructions:  494000001 cycles:  711081720 heartbeat IPC: 0.66492 cumulative IPC: 0.62342 (Simulation time: 0 hr 25 min 35 sec) 
Heartbeat CPU  0 instructions:  495000000 cycles:  712597581 heartbeat IPC: 0.65969 cumulative IPC: 0.62351 (Simulation time: 0 hr 25 min 38 sec) 
Heartbeat CPU  0 instructions:  496000000 cycles:  714155831 heartbeat IPC: 0.64175 cumulative IPC: 0.62355 (Simulation time: 0 hr 25 min 42 sec) 
Heartbeat CPU  0 instructions:  497000002 cycles:  715673278 heartbeat IPC: 0.65900 cumulative IPC: 0.62364 (Simulation time: 0 hr 25 min 45 sec) 
Heartbeat CPU  0 instructions:  498000000 cycles:  717212387 heartbeat IPC: 0.64973 cumulative IPC: 0.62370 (Simulation time: 0 hr 25 min 48 sec) 
Heartbeat CPU  0 instructions:  499000001 cycles:  718724568 heartbeat IPC: 0.66130 cumulative IPC: 0.62379 (Simulation time: 0 hr 25 min 51 sec) 
Heartbeat CPU  0 instructions:  500000000 cycles:  720280060 heartbeat IPC: 0.64288 cumulative IPC: 0.62384 (Simulation time: 0 hr 25 min 55 sec) 
Heartbeat CPU  0 instructions:  501000000 cycles:  721808069 heartbeat IPC: 0.65445 cumulative IPC: 0.62391 (Simulation time: 0 hr 25 min 58 sec) 
Heartbeat CPU  0 instructions:  502000003 cycles:  723303630 heartbeat IPC: 0.66865 cumulative IPC: 0.62401 (Simulation time: 0 hr 26 min 1 sec) 
Heartbeat CPU  0 instructions:  503000003 cycles:  724835596 heartbeat IPC: 0.65276 cumulative IPC: 0.62408 (Simulation time: 0 hr 26 min 4 sec) 
Heartbeat CPU  0 instructions:  504000000 cycles:  726374596 heartbeat IPC: 0.64977 cumulative IPC: 0.62414 (Simulation time: 0 hr 26 min 8 sec) 
Heartbeat CPU  0 instructions:  505000001 cycles:  727894698 heartbeat IPC: 0.65785 cumulative IPC: 0.62422 (Simulation time: 0 hr 26 min 11 sec) 
Heartbeat CPU  0 instructions:  506000001 cycles:  729409856 heartbeat IPC: 0.66000 cumulative IPC: 0.62430 (Simulation time: 0 hr 26 min 14 sec) 
Heartbeat CPU  0 instructions:  507000003 cycles:  730914268 heartbeat IPC: 0.66471 cumulative IPC: 0.62440 (Simulation time: 0 hr 26 min 17 sec) 
Heartbeat CPU  0 instructions:  508000000 cycles:  732443352 heartbeat IPC: 0.65398 cumulative IPC: 0.62447 (Simulation time: 0 hr 26 min 21 sec) 
Heartbeat CPU  0 instructions:  509000000 cycles:  733948190 heartbeat IPC: 0.66452 cumulative IPC: 0.62456 (Simulation time: 0 hr 26 min 24 sec) 
Heartbeat CPU  0 instructions:  510000002 cycles:  735494053 heartbeat IPC: 0.64689 cumulative IPC: 0.62461 (Simulation time: 0 hr 26 min 27 sec) 
Heartbeat CPU  0 instructions:  511000003 cycles:  737052459 heartbeat IPC: 0.64168 cumulative IPC: 0.62465 (Simulation time: 0 hr 26 min 31 sec) 
Heartbeat CPU  0 instructions:  512000000 cycles:  738564722 heartbeat IPC: 0.66126 cumulative IPC: 0.62474 (Simulation time: 0 hr 26 min 34 sec) 
Heartbeat CPU  0 instructions:  513000001 cycles:  740083922 heartbeat IPC: 0.65824 cumulative IPC: 0.62481 (Simulation time: 0 hr 26 min 37 sec) 
Heartbeat CPU  0 instructions:  514000003 cycles:  741596922 heartbeat IPC: 0.66094 cumulative IPC: 0.62489 (Simulation time: 0 hr 26 min 40 sec) 
Heartbeat CPU  0 instructions:  515000002 cycles:  743162326 heartbeat IPC: 0.63881 cumulative IPC: 0.62493 (Simulation time: 0 hr 26 min 44 sec) 
Heartbeat CPU  0 instructions:  516000000 cycles:  744686645 heartbeat IPC: 0.65603 cumulative IPC: 0.62500 (Simulation time: 0 hr 26 min 47 sec) 
Heartbeat CPU  0 instructions:  517000001 cycles:  746191879 heartbeat IPC: 0.66435 cumulative IPC: 0.62509 (Simulation time: 0 hr 26 min 50 sec) 
Heartbeat CPU  0 instructions:  518000000 cycles:  747764637 heartbeat IPC: 0.63583 cumulative IPC: 0.62511 (Simulation time: 0 hr 26 min 53 sec) 
Heartbeat CPU  0 instructions:  519000003 cycles:  749309938 heartbeat IPC: 0.64713 cumulative IPC: 0.62516 (Simulation time: 0 hr 26 min 57 sec) 
Heartbeat CPU  0 instructions:  520000000 cycles:  750831580 heartbeat IPC: 0.65718 cumulative IPC: 0.62524 (Simulation time: 0 hr 27 min 0 sec) 
Heartbeat CPU  0 instructions:  521000000 cycles:  752378146 heartbeat IPC: 0.64659 cumulative IPC: 0.62528 (Simulation time: 0 hr 27 min 3 sec) 
Heartbeat CPU  0 instructions:  522000003 cycles:  753927489 heartbeat IPC: 0.64544 cumulative IPC: 0.62533 (Simulation time: 0 hr 27 min 6 sec) 
Heartbeat CPU  0 instructions:  523000002 cycles:  755475512 heartbeat IPC: 0.64598 cumulative IPC: 0.62538 (Simulation time: 0 hr 27 min 10 sec) 
Heartbeat CPU  0 instructions:  524000000 cycles:  756977830 heartbeat IPC: 0.66564 cumulative IPC: 0.62547 (Simulation time: 0 hr 27 min 13 sec) 
Heartbeat CPU  0 instructions:  525000001 cycles:  758500386 heartbeat IPC: 0.65679 cumulative IPC: 0.62554 (Simulation time: 0 hr 27 min 16 sec) 
Heartbeat CPU  0 instructions:  526000000 cycles:  760055751 heartbeat IPC: 0.64294 cumulative IPC: 0.62558 (Simulation time: 0 hr 27 min 20 sec) 
Heartbeat CPU  0 instructions:  527000002 cycles:  761563743 heartbeat IPC: 0.66313 cumulative IPC: 0.62566 (Simulation time: 0 hr 27 min 23 sec) 
Heartbeat CPU  0 instructions:  528000000 cycles:  763090353 heartbeat IPC: 0.65504 cumulative IPC: 0.62573 (Simulation time: 0 hr 27 min 26 sec) 
[...]
Heartbeat CPU  0 instructions:  535000003 cycles:  773700874 heartbeat IPC: 0.65573 cumulative IPC: 0.62625 (Simulation time: 0 hr 27 min 49 sec) 
Heartbeat CPU  0 instructions:  536000000 cycles:  775214355 heartbeat IPC: 0.66073 cumulative IPC: 0.62632 (Simulation time: 0 hr 27 min 52 sec) 
Heartbeat CPU  0 instructions:  537000001 cycles:  776740331 heartbeat IPC: 0.65532 cumulative IPC: 0.62638 (Simulation time: 0 hr 27 min 56 sec) 
Heartbeat CPU  0 instructions:  538000000 cycles:  778271263 heartbeat IPC: 0.65320 cumulative IPC: 0.62644 (Simulation time: 0 hr 27 min 59 sec) 
Heartbeat CPU  0 instructions:  539000000 cycles:  779719025 heartbeat IPC: 0.69072 cumulative IPC: 0.62658 (Simulation time: 0 hr 28 min 2 sec) 
Heartbeat CPU  0 instructions:  540000000 cycles:  781008812 heartbeat IPC: 0.77532 cumulative IPC: 0.62685 (Simulation time: 0 hr 28 min 5 sec) 
Heartbeat CPU  0 instructions:  541000002 cycles:  782281944 heartbeat IPC: 0.78547 cumulative IPC: 0.62714 (Simulation time: 0 hr 28 min 8 sec) 
Heartbeat CPU  0 instructions:  542000000 cycles:  783408454 heartbeat IPC: 0.88770 cumulative IPC: 0.62755 (Simulation time: 0 hr 28 min 11 sec) 
Heartbeat CPU  0 instructions:  543000002 cycles:  784930209 heartbeat IPC: 0.65714 cumulative IPC: 0.62762 (Simulation time: 0 hr 28 min 14 sec) 
Heartbeat CPU  0 instructions:  544000000 cycles:  786426397 heartbeat IPC: 0.66836 cumulative IPC: 0.62770 (Simulation time: 0 hr 28 min 18 sec) 
Heartbeat CPU  0 instructions:  545000002 cycles:  787915926 heartbeat IPC: 0.67135 cumulative IPC: 0.62779 (Simulation time: 0 hr 28 min 21 sec) 
Heartbeat CPU  0 instructions:  546000002 cycles:  789412706 heartbeat IPC: 0.66810 cumulative IPC: 0.62788 (Simulation time: 0 hr 28 min 24 sec) 
Heartbeat CPU  0 instructions:  547000000 cycles:  790920992 heartbeat IPC: 0.66300 cumulative IPC: 0.62795 (Simulation time: 0 hr 28 min 27 sec) 
Heartbeat CPU  0 instructions:  548000000 cycles:  792421707 heartbeat IPC: 0.66635 cumulative IPC: 0.62803 (Simulation time: 0 hr 28 min 31 sec) 
Heartbeat CPU  0 instructions:  549000002 cycles:  793950232 heartbeat IPC: 0.65423 cumulative IPC: 0.62809 (Simulation time: 0 hr 28 min 34 sec) 
Heartbeat CPU  0 instructions:  550000000 cycles:  795471235 heartbeat IPC: 0.65746 cumulative IPC: 0.62815 (Simulation time: 0 hr 28 min 37 sec) 
Heartbeat CPU  0 instructions:  551000000 cycles:  796972269 heartbeat IPC: 0.66621 cumulative IPC: 0.62823 (Simulation time: 0 hr 28 min 40 sec) 
Heartbeat CPU  0 instructions:  552000000 cycles:  798487296 heartbeat IPC: 0.66005 cumulative IPC: 0.62830 (Simulation time: 0 hr 28 min 44 sec) 
Heartbeat CPU  0 instructions:  553000001 cycles:  799988312 heartbeat IPC: 0.66622 cumulative IPC: 0.62838 (Simulation time: 0 hr 28 min 47 sec) 
Heartbeat CPU  0 instructions:  554000002 cycles:  801499768 heartbeat IPC: 0.66161 cumulative IPC: 0.62845 (Simulation time: 0 hr 28 min 50 sec) 
Heartbeat CPU  0 instructions:  555000000 cycles:  803012996 heartbeat IPC: 0.66084 cumulative IPC: 0.62852 (Simulation time: 0 hr 28 min 54 sec) 
Heartbeat CPU  0 instructions:  556000000 cycles:  804501023 heartbeat IPC: 0.67203 cumulative IPC: 0.62860 (Simulation time: 0 hr 28 min 57 sec) 
Heartbeat CPU  0 instructions:  557000001 cycles:  806005127 heartbeat IPC: 0.66485 cumulative IPC: 0.62868 (Simulation time: 0 hr 29 min 0 sec) 
Heartbeat CPU  0 instructions:  558000003 cycles:  807521578 heartbeat IPC: 0.65944 cumulative IPC: 0.62874 (Simulation time: 0 hr 29 min 3 sec) 
Heartbeat CPU  0 instructions:  559000000 cycles:  809011066 heartbeat IPC: 0.67137 cumulative IPC: 0.62883 (Simulation time: 0 hr 29 min 6 sec) 
Heartbeat CPU  0 instructions:  560000000 cycles:  810510108 heartbeat IPC: 0.66709 cumulative IPC: 0.62891 (Simulation time: 0 hr 29 min 10 sec) 
Heartbeat CPU  0 instructions:  561000000 cycles:  812000340 heartbeat IPC: 0.67104 cumulative IPC: 0.62900 (Simulation time: 0 hr 29 min 13 sec) 
Heartbeat CPU  0 instructions:  562000003 cycles:  813489449 heartbeat IPC: 0.67154 cumulative IPC: 0.62908 (Simulation time: 0 hr 29 min 16 sec) 
Heartbeat CPU  0 instructions:  563000003 cycles:  814987374 heartbeat IPC: 0.66759 cumulative IPC: 0.62916 (Simulation time: 0 hr 29 min 20 sec) 
Heartbeat CPU  0 instructions:  564000000 cycles:  816476329 heartbeat IPC: 0.67161 cumulative IPC: 0.62925 (Simulation time: 0 hr 29 min 23 sec) 
Heartbeat CPU  0 instructions:  565000000 cycles:  817971703 heartbeat IPC: 0.66873 cumulative IPC: 0.62933 (Simulation time: 0 hr 29 min 27 sec) 
Heartbeat CPU  0 instructions:  566000001 cycles:  819470184 heartbeat IPC: 0.66734 cumulative IPC: 0.62940 (Simulation time: 0 hr 29 min 30 sec) 
Heartbeat CPU  0 instructions:  567000000 cycles:  820958903 heartbeat IPC: 0.67172 cumulative IPC: 0.62949 (Simulation time: 0 hr 29 min 33 sec) 
Heartbeat CPU  0 instructions:  568000000 cycles:  822442793 heartbeat IPC: 0.67390 cumulative IPC: 0.62958 (Simulation time: 0 hr 29 min 36 sec) 
Heartbeat CPU  0 instructions:  569000003 cycles:  823944202 heartbeat IPC: 0.66604 cumulative IPC: 0.62965 (Simulation time: 0 hr 29 min 40 sec) 
Heartbeat CPU  0 instructions:  570000000 cycles:  825443140 heartbeat IPC: 0.66714 cumulative IPC: 0.62972 (Simulation time: 0 hr 29 min 43 sec) 
Heartbeat CPU  0 instructions:  571000000 cycles:  826946266 heartbeat IPC: 0.66528 cumulative IPC: 0.62980 (Simulation time: 0 hr 29 min 46 sec) 
Heartbeat CPU  0 instructions:  572000000 cycles:  828438705 heartbeat IPC: 0.67004 cumulative IPC: 0.62988 (Simulation time: 0 hr 29 min 50 sec) 
Heartbeat CPU  0 instructions:  573000000 cycles:  829925804 heartbeat IPC: 0.67245 cumulative IPC: 0.62996 (Simulation time: 0 hr 29 min 53 sec) 
Heartbeat CPU  0 instructions:  574000001 cycles:  831412963 heartbeat IPC: 0.67242 cumulative IPC: 0.63004 (Simulation time: 0 hr 29 min 56 sec) 
Heartbeat CPU  0 instructions:  575000001 cycles:  832918974 heartbeat IPC: 0.66401 cumulative IPC: 0.63011 (Simulation time: 0 hr 29 min 59 sec) 
Heartbeat CPU  0 instructions:  576000000 cycles:  834412846 heartbeat IPC: 0.66940 cumulative IPC: 0.63019 (Simulation time: 0 hr 30 min 2 sec) 
Heartbeat CPU  0 instructions:  577000001 cycles:  835909361 heartbeat IPC: 0.66822 cumulative IPC: 0.63027 (Simulation time: 0 hr 30 min 6 sec) 
Heartbeat CPU  0 instructions:  578000001 cycles:  837400418 heartbeat IPC: 0.67067 cumulative IPC: 0.63034 (Simulation time: 0 hr 30 min 9 sec) 
Heartbeat CPU  0 instructions:  579000000 cycles:  838904305 heartbeat IPC: 0.66494 cumulative IPC: 0.63041 (Simulation time: 0 hr 30 min 12 sec) 
Heartbeat CPU  0 instructions:  580000000 cycles:  840395459 heartbeat IPC: 0.67062 cumulative IPC: 0.63049 (Simulation time: 0 hr 30 min 16 sec) 
Heartbeat CPU  0 instructions:  581000002 cycles:  841879075 heartbeat IPC: 0.67403 cumulative IPC: 0.63058 (Simulation time: 0 hr 30 min 19 sec) 
Heartbeat CPU  0 instructions:  582000000 cycles:  843381637 heartbeat IPC: 0.66553 cumulative IPC: 0.63065 (Simulation time: 0 hr 30 min 22 sec) 
Heartbeat CPU  0 instructions:  583000000 cycles:  844879397 heartbeat IPC: 0.66766 cumulative IPC: 0.63072 (Simulation time: 0 hr 30 min 25 sec) 
Heartbeat CPU  0 instructions:  584000000 cycles:  846359763 heartbeat IPC: 0.67551 cumulative IPC: 0.63080 (Simulation time: 0 hr 30 min 29 sec) 
Heartbeat CPU  0 instructions:  585000001 cycles:  847857247 heartbeat IPC: 0.66779 cumulative IPC: 0.63088 (Simulation time: 0 hr 30 min 32 sec) 
Heartbeat CPU  0 instructions:  586000000 cycles:  849341381 heartbeat IPC: 0.67379 cumulative IPC: 0.63096 (Simulation time: 0 hr 30 min 35 sec) 
Heartbeat CPU  0 instructions:  587000001 cycles:  850829980 heartbeat IPC: 0.67177 cumulative IPC: 0.63104 (Simulation time: 0 hr 30 min 38 sec) 
Heartbeat CPU  0 instructions:  588000000 cycles:  852357157 heartbeat IPC: 0.65480 cumulative IPC: 0.63108 (Simulation time: 0 hr 30 min 42 sec) 
Heartbeat CPU  0 instructions:  589000000 cycles:  853834474 heartbeat IPC: 0.67690 cumulative IPC: 0.63117 (Simulation time: 0 hr 30 min 45 sec) 
Heartbeat CPU  0 instructions:  590000003 cycles:  855333537 heartbeat IPC: 0.66709 cumulative IPC: 0.63124 (Simulation time: 0 hr 30 min 48 sec) 
Heartbeat CPU  0 instructions:  591000002 cycles:  856834157 heartbeat IPC: 0.66639 cumulative IPC: 0.63131 (Simulation time: 0 hr 30 min 51 sec) 
Heartbeat CPU  0 instructions:  592000000 cycles:  858331165 heartbeat IPC: 0.66800 cumulative IPC: 0.63138 (Simulation time: 0 hr 30 min 55 sec) 
Heartbeat CPU  0 instructions:  593000001 cycles:  859832746 heartbeat IPC: 0.66597 cumulative IPC: 0.63145 (Simulation time: 0 hr 30 min 58 sec) 
Heartbeat CPU  0 instructions:  594000000 cycles:  861325984 heartbeat IPC: 0.66968 cumulative IPC: 0.63152 (Simulation time: 0 hr 31 min 1 sec) 
Heartbeat CPU  0 instructions:  595000000 cycles:  862815909 heartbeat IPC: 0.67117 cumulative IPC: 0.63159 (Simulation time: 0 hr 31 min 4 sec) 
Heartbeat CPU  0 instructions:  596000000 cycles:  864307888 heartbeat IPC: 0.67025 cumulative IPC: 0.63167 (Simulation time: 0 hr 31 min 8 sec) 
Heartbeat CPU  0 instructions:  597000003 cycles:  865817727 heartbeat IPC: 0.66232 cumulative IPC: 0.63173 (Simulation time: 0 hr 31 min 11 sec) 
Heartbeat CPU  0 instructions:  598000002 cycles:  867310696 heartbeat IPC: 0.66981 cumulative IPC: 0.63180 (Simulation time: 0 hr 31 min 14 sec) 
Heartbeat CPU  0 instructions:  599000003 cycles:  868813173 heartbeat IPC: 0.66557 cumulative IPC: 0.63186 (Simulation time: 0 hr 31 min 17 sec) 
Heartbeat CPU  0 instructions:  600000000 cycles:  870297913 heartbeat IPC: 0.67352 cumulative IPC: 0.63194 (Simulation time: 0 hr 31 min 21 sec) 
Finished CPU 0 instructions: 500000000 cycles: 791212771 cumulative IPC: 0.63194 (Simulation time: 0 hr 31 min 21 sec) 

ChampSim completed all CPUs

[ROI Statistics]
Core_0_instructions 500000000
Core_0_cycles 791212771
Core_0_IPC 0.63194

Core_0_branch_prediction_accuracy 99.58640
Core_0_branch_MPKI 0.02120
Core_0_average_ROB_occupancy_at_mispredict 244.44892

Core_0_L1D_total_access 288656202
Core_0_L1D_total_hit 284346222
Core_0_L1D_total_miss 4309980
Core_0_L1D_loads 257677705
Core_0_L1D_load_hit 253368619
Core_0_L1D_load_miss 4309086
Core_0_L1D_RFOs 30978497
Core_0_L1D_RFO_hit 30977603
Core_0_L1D_RFO_miss 894
Core_0_L1D_prefetches 0
Core_0_L1D_prefetch_hit 0
Core_0_L1D_prefetch_miss 0
Core_0_L1D_writebacks 0
Core_0_L1D_writeback_hit 0
Core_0_L1D_writeback_miss 0
Core_0_L1D_prefetch_requested 0
Core_0_L1D_prefetch_dropped 0
Core_0_L1D_prefetch_issued 0
Core_0_L1D_prefetch_filled 0
Core_0_L1D_prefetch_useful 0
Core_0_L1D_prefetch_useless 0
Core_0_L1D_prefetch_late 0
Core_0_L1D_average_miss_latency 51.12320

Core_0_L1D_rq_access 307606001
Core_0_L1D_rq_forward 0
Core_0_L1D_rq_merged 49877795
Core_0_L1D_rq_to_cache 257704721
Core_0_L1D_rq_full 0

Core_0_L1D_wq_access 30978597
Core_0_L1D_wq_forward 23485
Core_0_L1D_wq_merged 0
Core_0_L1D_wq_to_cache 30978597
Core_0_L1D_wq_full 0

Core_0_L1D_pq_access 0
Core_0_L1D_pq_forward 0
Core_0_L1D_pq_merged 0
Core_0_L1D_pq_to_cache 0
Core_0_L1D_pq_full 0

Core_0_L1D_acc_epochs 836736
Core_0_L1D_acc_level_0 836736
Core_0_L1D_acc_level_1 0
Core_0_L1D_acc_level_2 0
Core_0_L1D_acc_level_3 0
Core_0_L1D_acc_level_4 0
Core_0_L1D_acc_level_5 0
Core_0_L1D_acc_level_6 0
Core_0_L1D_acc_level_7 0
Core_0_L1D_acc_level_8 0
Core_0_L1D_acc_level_9 0

Core_0_L1I_total_access 133856128
Core_0_L1I_total_hit 133855951
Core_0_L1I_total_miss 177
Core_0_L1I_loads 133856128
Core_0_L1I_load_hit 133855951
Core_0_L1I_load_miss 177
Core_0_L1I_RFOs 0
Core_0_L1I_RFO_hit 0
Core_0_L1I_RFO_miss 0
Core_0_L1I_prefetches 0
Core_0_L1I_prefetch_hit 0
Core_0_L1I_prefetch_miss 0
Core_0_L1I_writebacks 0
Core_0_L1I_writeback_hit 0
Core_0_L1I_writeback_miss 0
Core_0_L1I_prefetch_requested 0
Core_0_L1I_prefetch_dropped 0
Core_0_L1I_prefetch_issued 0
Core_0_L1I_prefetch_filled 0
Core_0_L1I_prefetch_useful 0
Core_0_L1I_prefetch_useless 0
Core_0_L1I_prefetch_late 0
Core_0_L1I_average_miss_latency 923.71186

Core_0_L1I_rq_access 500000003
Core_0_L1I_rq_forward 0
Core_0_L1I_rq_merged 366143803
Core_0_L1I_rq_to_cache 133856200
Core_0_L1I_rq_full 0

Core_0_L1I_wq_access 0
Core_0_L1I_wq_forward 0
Core_0_L1I_wq_merged 0
Core_0_L1I_wq_to_cache 0
Core_0_L1I_wq_full 0

Core_0_L1I_pq_access 0
Core_0_L1I_pq_forward 0
Core_0_L1I_pq_merged 0
Core_0_L1I_pq_to_cache 0
Core_0_L1I_pq_full 0

Core_0_L1I_acc_epochs 836736
Core_0_L1I_acc_level_0 836736
Core_0_L1I_acc_level_1 0
Core_0_L1I_acc_level_2 0
Core_0_L1I_acc_level_3 0
Core_0_L1I_acc_level_4 0
Core_0_L1I_acc_level_5 0
Core_0_L1I_acc_level_6 0
Core_0_L1I_acc_level_7 0
Core_0_L1I_acc_level_8 0
Core_0_L1I_acc_level_9 0

Core_0_L2C_total_access 10161812
Core_0_L2C_total_hit 6701112
Core_0_L2C_total_miss 3460700
Core_0_L2C_loads 4308365
Core_0_L2C_load_hit 2696561
Core_0_L2C_load_miss 1611804
Core_0_L2C_RFOs 779
Core_0_L2C_RFO_hit 757
Core_0_L2C_RFO_miss 22
Core_0_L2C_prefetches 3926672
Core_0_L2C_prefetch_hit 2077912
Core_0_L2C_prefetch_miss 1848760
Core_0_L2C_writebacks 1925996
Core_0_L2C_writeback_hit 1925882
Core_0_L2C_writeback_miss 114
Core_0_L2C_prefetch_requested 16683262
Core_0_L2C_prefetch_dropped 0
Core_0_L2C_prefetch_issued 16683262
Core_0_L2C_prefetch_filled 2223548
Core_0_L2C_prefetch_useful 2162278
Core_0_L2C_prefetch_useless 61196
Core_0_L2C_prefetch_late 1010
Core_0_L2C_average_miss_latency 74.65542

Core_0_L2C_rq_access 4310157
Core_0_L2C_rq_forward 0
Core_0_L2C_rq_merged 0
Core_0_L2C_rq_to_cache 4309144
Core_0_L2C_rq_full 0

Core_0_L2C_wq_access 1925996
Core_0_L2C_wq_forward 1013
Core_0_L2C_wq_merged 0
Core_0_L2C_wq_to_cache 1925996
Core_0_L2C_wq_full 0

Core_0_L2C_pq_access 16683262
Core_0_L2C_pq_forward 0
Core_0_L2C_pq_merged 6897
Core_0_L2C_pq_to_cache 16676365
Core_0_L2C_pq_full 0

Core_0_L2C_acc_epochs 836736
Core_0_L2C_acc_level_0 90950
Core_0_L2C_acc_level_1 39242
Core_0_L2C_acc_level_2 41312
Core_0_L2C_acc_level_3 46661
Core_0_L2C_acc_level_4 46182
Core_0_L2C_acc_level_5 50199
Core_0_L2C_acc_level_6 50576
Core_0_L2C_acc_level_7 57736
Core_0_L2C_acc_level_8 71445
Core_0_L2C_acc_level_9 342433

Core_0_LLC_total_access 15805783
Core_0_LLC_total_hit 12353324
Core_0_LLC_total_miss 3452459
Core_0_LLC_loads 1610835
Core_0_LLC_load_hit 1351976
Core_0_LLC_load_miss 258859
Core_0_LLC_RFOs 22
Core_0_LLC_RFO_hit 10
Core_0_LLC_RFO_miss 12
Core_0_LLC_prefetches 12285466
Core_0_LLC_prefetch_hit 9098081
Core_0_LLC_prefetch_miss 3187385
Core_0_LLC_writebacks 1909460
Core_0_LLC_writeback_hit 1903257
Core_0_LLC_writeback_miss 6203
Core_0_LLC_prefetch_requested 0
Core_0_LLC_prefetch_dropped 0
Core_0_LLC_prefetch_issued 0
Core_0_LLC_prefetch_filled 3896218
Core_0_LLC_prefetch_useful 1529623
Core_0_LLC_prefetch_useless 2347084
Core_0_LLC_prefetch_late 1613
Core_0_LLC_average_miss_latency 472.30371

Core_0_LLC_rq_access 1610857
Core_0_LLC_rq_forward 0
Core_0_LLC_rq_merged 0
Core_0_LLC_rq_to_cache 1610857
Core_0_LLC_rq_full 0

Core_0_LLC_wq_access 1909460
Core_0_LLC_wq_forward 0
Core_0_LLC_wq_merged 0
Core_0_LLC_wq_to_cache 1909460
Core_0_LLC_wq_full 0

Core_0_LLC_pq_access 14523619
Core_0_LLC_pq_forward 0
Core_0_LLC_pq_merged 31
Core_0_LLC_pq_to_cache 14523588
Core_0_LLC_pq_full 0

Core_0_LLC_acc_epochs 849901
Core_0_LLC_acc_level_0 81641
Core_0_LLC_acc_level_1 140836
Core_0_LLC_acc_level_2 154944
Core_0_LLC_acc_level_3 130164
Core_0_LLC_acc_level_4 87710
Core_0_LLC_acc_level_5 69832
Core_0_LLC_acc_level_6 51596
Core_0_LLC_acc_level_7 30692
Core_0_LLC_acc_level_8 21840
Core_0_LLC_acc_level_9 80646

Core_0_major_page_fault 0
Core_0_minor_page_fault 169020

spp.pref.total 16683262
spp.pref.at_L2 2526311
spp.pref.at_LLC 14156951

spp.depth.max 9
spp.depth.min 0
spp.depth.avg 3

spp.breadth.max 2
spp.breadth.min 0
spp.breadth.avg 0

delta_1 16088364
delta_28 552632
delta_30 319625
delta_-29 288174
delta_2 61409
delta_29 45532
delta_-1 5354
delta_3 4863
delta_-21 3185
delta_20 2492
delta_6 2055
delta_4 1835
delta_-13 1805
delta_24 1224
delta_-25 1157
delta_-10 931
delta_13 924
delta_57 880
delta_-2 863
delta_10 656
delta_-9 618
delta_12 402
delta_-18 393
delta_-8 390
delta_16 387
delta_-23 381
delta_-5 341
delta_-17 280
delta_21 270
delta_23 268
delta_-16 258
delta_14 238
delta_5 219
delta_26 198
delta_-4 171
delta_11 166
delta_7 148
delta_8 134
delta_19 132
delta_-3 126
delta_-19 124
delta_-15 102
delta_9 86
delta_-22 79
delta_-55 42
delta_-40 41
delta_31 28
delta_-30 28
delta_-7 24
delta_-56 22
delta_-54 19
delta_22 19
delta_17 17
delta_34 11
delta_-39 10
delta_-14 9
delta_15 6
delta_32 6
delta_33 4
delta_50 3
delta_-11 3
delta_48 2
delta_-12 2
delta_58 1
delta_-26 1
delta_43 1
delta_-6 1

depth_1_delta_1 4306385
depth_1_delta_28 304489
depth_1_delta_30 125610
depth_1_delta_-29 108219
depth_1_delta_29 43077
depth_1_delta_2 37765
depth_1_delta_-1 5125
depth_1_delta_3 4378
depth_1_delta_-21 2608
depth_1_delta_20 2206
depth_1_delta_6 1971
depth_1_delta_4 1797
depth_1_delta_-13 1695
depth_1_delta_24 1045
depth_1_delta_-25 933
depth_1_delta_-10 924
depth_1_delta_57 869
depth_1_delta_-2 848
depth_1_delta_13 645
depth_1_delta_10 591
depth_1_delta_-9 491
depth_1_delta_12 389
depth_1_delta_-23 376
depth_1_delta_-8 343
depth_1_delta_-18 336
depth_1_delta_-5 324
depth_1_delta_16 292
depth_1_delta_-17 274
depth_1_delta_21 269
depth_1_delta_23 258
depth_1_delta_14 230
depth_1_delta_5 216
depth_1_delta_-16 213
depth_1_delta_-4 170
depth_1_delta_11 166
depth_1_delta_7 147
depth_1_delta_8 132
depth_1_delta_-3 126
depth_1_delta_-19 124
depth_1_delta_19 121
depth_1_delta_26 119
depth_1_delta_-15 99
depth_1_delta_9 83
depth_1_delta_-22 79
depth_1_delta_-55 42
depth_1_delta_-40 41
depth_1_delta_31 28
depth_1_delta_-30 25
depth_1_delta_-7 24
depth_1_delta_-56 22
depth_1_delta_-54 19
depth_1_delta_17 17
depth_1_delta_22 17
depth_1_delta_34 11
depth_1_delta_-39 10
depth_1_delta_-14 9
depth_1_delta_15 6
depth_1_delta_32 6
depth_1_delta_33 4
depth_1_delta_50 3
depth_1_delta_-11 3
depth_1_delta_48 2
depth_1_delta_-12 2
depth_1_delta_58 1
depth_1_delta_-26 1
depth_1_delta_43 1
depth_1_delta_-6 1
depth_2_delta_1 3771248
depth_2_delta_28 196014
depth_2_delta_30 87509
depth_2_delta_-29 81475
depth_2_delta_2 17423
depth_2_delta_29 2391
depth_2_delta_-21 575
depth_2_delta_3 476
depth_2_delta_20 281
depth_2_delta_13 278
depth_2_delta_-1 209
depth_2_delta_-25 196
depth_2_delta_24 179
depth_2_delta_-9 116
depth_2_delta_-13 110
depth_2_delta_16 95
depth_2_delta_6 84
depth_2_delta_10 65
depth_2_delta_-18 57
depth_2_delta_26 53
depth_2_delta_-8 47
depth_2_delta_-16 45
depth_2_delta_4 38
depth_2_delta_-5 17
depth_2_delta_-2 15
depth_2_delta_12 13
depth_2_delta_19 11
depth_2_delta_57 10
depth_2_delta_23 10
depth_2_delta_14 8
depth_2_delta_-10 7
depth_2_delta_-17 6
depth_2_delta_-23 5
depth_2_delta_5 3
depth_2_delta_-15 3
depth_2_delta_-30 3
depth_2_delta_9 3
depth_2_delta_22 2
depth_2_delta_8 2
depth_2_delta_21 1
depth_2_delta_-4 1
depth_2_delta_7 1
depth_3_delta_1 3135750
depth_3_delta_30 57922
depth_3_delta_28 48715
depth_3_delta_-29 45356
depth_3_delta_2 4605
depth_3_delta_29 64
depth_3_delta_-25 25
depth_3_delta_26 23
depth_3_delta_-1 20
depth_3_delta_-9 11
depth_3_delta_3 9
depth_3_delta_20 5
depth_3_delta_-21 2
depth_3_delta_13 1
depth_3_delta_57 1
depth_4_delta_1 2663595
depth_4_delta_-29 33972
depth_4_delta_30 30762
depth_4_delta_28 3329
depth_4_delta_2 1616
depth_4_delta_-25 3
depth_4_delta_26 3
depth_5_delta_1 1705539
depth_5_delta_-29 17166
depth_5_delta_30 16168
depth_5_delta_28 85
depth_6_delta_1 421540
depth_6_delta_-29 1984
depth_6_delta_30 1653
depth_7_delta_1 80450
depth_7_delta_-29 2
depth_7_delta_30 1
depth_8_delta_1 3760
depth_9_delta_1 97

Channel_0_RQ_row_buffer_hit 1312516
Channel_0_RQ_row_buffer_miss 2133740
Channel_0_WQ_row_buffer_hit 618639
Channel_0_WQ_row_buffer_miss 1290074
Channel_0_WQ_full 0
Channel_0_dbus_congested 4569193

avg_congested_cycle 95

DRAM_bw_pochs 3399602
DRAM_bw_level_0 1414200
DRAM_bw_level_1 660528
DRAM_bw_level_2 0
DRAM_bw_level_3 1324874
