*************************************************
   ChampSim Multicore Out-of-Order Simulator
   Last compiled: Dec 11 2024 17:59:53
*************************************************
parsing config file: /home/functionmain/桌面/Pythia/config/spp_dev2.ini

trace_0 /home/functionmain/桌面/Pythia/traces/459.GemsFDTD-1418B.champsimtrace.xz
adding L2C_PREFETCHER: SPP_dev2
Initialize SIGNATURE TABLE
ST_SET: 1
ST_WAY: 256
ST_TAG_BIT: 16
ST_TAG_MASK: ffff

Initialize PATTERN TABLE
PT_SET: 512
PT_WAY: 4
SIG_DELTA_BIT: 7
C_SIG_BIT: 4
C_DELTA_BIT: 4

Initialize PREFETCH FILTER
FILTER_SET: 1024
fill_threshold: 90
pf_threshold: 40

Initialize SHIP state
warmup_instructions 100000000
simulation_instructions 500000000
champsim_seed 272
measure_ipc 0
measure_ipc_epoch 1000
measure_dram_bw 1
measure_dram_bw_epoch 256
measure_cache_acc 1
measure_cache_acc_epoch 1024
l1d_perfect 0
l2c_perfect 0
llc_perfect 0
l1d_semi_perfect 0
l2c_semi_perfect 0
llc_semi_perfect 0
semi_perfect_cache_page_buffer_size 64

num_cpus 1
cpu_freq 4000
dram_io_freq 600
page_size 4096
block_size 64
max_read_per_cycle 8
max_fill_per_cycle 1
dram_channels 1
log2_dram_channels 0
dram_ranks 1
dram_banks 8
dram_rows 65536
dram_columns 128
dram_row_size 8
dram_size 4096
dram_pages 1048576

fetch_width 6
decode_width 6
exec_width 4
lq_width 2
sq_width 2
retire_width 4
scheduler_size 128
branch_mispredict_penalty 20
rob_size 256
lq_size 72
sq_size 56
num_instr_destinations_sparc 4
num_instr_destinations 2
num_instr_sources 4

itlb_set 16
itlb_way 8
itlb_rq_size 16
itlb_wq_size 16
itlb_pq_size 0
itlb_mshr_size 8
itlb_latency 1

dtlb_set 16
dtlb_way 4
dtlb_rq_size 16
dtlb_wq_size 16
dtlb_pq_size 0
dtlb_mshr_size 8
dtlb_latency 1

stlb_set 128
stlb_way 12
stlb_rq_size 32
stlb_wq_size 32
stlb_pq_size 0
stlb_mshr_size 16
stlb_latency 8

l1i_size 32
l1i_set 64
l1i_way 8
l1i_rq_size 64
l1i_wq_size 64
l1i_pq_size 8
l1i_mshr_size 8
l1i_latency 1

l1d_size 32
l1d_set 64
l1d_way 8
l1d_rq_size 64
l1d_wq_size 64
l1d_pq_size 8
l1d_mshr_size 16
l1d_latency 4

l2c_size 256
l2c_set 512
l2c_way 8
l2c_rq_size 32
l2c_wq_size 32
l2c_pq_size 32
l2c_mshr_size 32
l2c_latency 10

llc_size 2048
llc_set 2048
llc_way 16
llc_rq_size 32
llc_wq_size 32
llc_pq_size 32
llc_mshr_size 64
llc_latency 20

dram_channel_width 8
dram_wq_size 64
dram_rq_size 64
tRP 15
tRCD 15
tCAS 12.5
dram_dbus_turn_around_time 30
dram_write_high_wm 56
dram_write_low_wm 48
min_dram_writes_per_switch 16
dram_mtps 600
dram_dbus_return_time 53


Heartbeat CPU  0 instructions:    1000001 cycles:     778754 heartbeat IPC: 1.28410 cumulative IPC: 1.28410 (Simulation time: 0 hr 0 min 2 sec) 
Heartbeat CPU  0 instructions:    2000002 cycles:    1557501 heartbeat IPC: 1.28412 cumulative IPC: 1.28411 (Simulation time: 0 hr 0 min 5 sec) 
Heartbeat CPU  0 instructions:    3000003 cycles:    2336056 heartbeat IPC: 1.28443 cumulative IPC: 1.28422 (Simulation time: 0 hr 0 min 7 sec) 
Heartbeat CPU  0 instructions:    4000000 cycles:    3114795 heartbeat IPC: 1.28412 cumulative IPC: 1.28419 (Simulation time: 0 hr 0 min 10 sec) 
Heartbeat CPU  0 instructions:    5000001 cycles:    3893568 heartbeat IPC: 1.28407 cumulative IPC: 1.28417 (Simulation time: 0 hr 0 min 12 sec) 
Heartbeat CPU  0 instructions:    6000002 cycles:    4672244 heartbeat IPC: 1.28423 cumulative IPC: 1.28418 (Simulation time: 0 hr 0 min 15 sec) 
Heartbeat CPU  0 instructions:    7000003 cycles:    5450883 heartbeat IPC: 1.28429 cumulative IPC: 1.28420 (Simulation time: 0 hr 0 min 17 sec) 
Heartbeat CPU  0 instructions:    8000000 cycles:    6229277 heartbeat IPC: 1.28469 cumulative IPC: 1.28426 (Simulation time: 0 hr 0 min 20 sec) 
Heartbeat CPU  0 instructions:    9000002 cycles:    7008043 heartbeat IPC: 1.28409 cumulative IPC: 1.28424 (Simulation time: 0 hr 0 min 22 sec) 
Heartbeat CPU  0 instructions:   10000003 cycles:    7786662 heartbeat IPC: 1.28433 cumulative IPC: 1.28425 (Simulation time: 0 hr 0 min 25 sec) 
Heartbeat CPU  0 instructions:   11000000 cycles:    8565137 heartbeat IPC: 1.28456 cumulative IPC: 1.28428 (Simulation time: 0 hr 0 min 27 sec) 
Heartbeat CPU  0 instructions:   12000000 cycles:    9343566 heartbeat IPC: 1.28464 cumulative IPC: 1.28431 (Simulation time: 0 hr 0 min 30 sec) 
Heartbeat CPU  0 instructions:   13000003 cycles:   10122411 heartbeat IPC: 1.28396 cumulative IPC: 1.28428 (Simulation time: 0 hr 0 min 32 sec) 
Heartbeat CPU  0 instructions:   14000000 cycles:   10901009 heartbeat IPC: 1.28436 cumulative IPC: 1.28428 (Simulation time: 0 hr 0 min 35 sec) 
Heartbeat CPU  0 instructions:   15000001 cycles:   11679607 heartbeat IPC: 1.28436 cumulative IPC: 1.28429 (Simulation time: 0 hr 0 min 37 sec) 
Heartbeat CPU  0 instructions:   16000000 cycles:   12458468 heartbeat IPC: 1.28392 cumulative IPC: 1.28427 (Simulation time: 0 hr 0 min 40 sec) 
Heartbeat CPU  0 instructions:   17000003 cycles:   13237088 heartbeat IPC: 1.28433 cumulative IPC: 1.28427 (Simulation time: 0 hr 0 min 42 sec) 
Heartbeat CPU  0 instructions:   18000000 cycles:   14015516 heartbeat IPC: 1.28464 cumulative IPC: 1.28429 (Simulation time: 0 hr 0 min 44 sec) 
Heartbeat CPU  0 instructions:   19000003 cycles:   14794178 heartbeat IPC: 1.28426 cumulative IPC: 1.28429 (Simulation time: 0 hr 0 min 47 sec) 
Heartbeat CPU  0 instructions:   20000000 cycles:   15572705 heartbeat IPC: 1.28447 cumulative IPC: 1.28430 (Simulation time: 0 hr 0 min 49 sec) 
Heartbeat CPU  0 instructions:   21000003 cycles:   16351628 heartbeat IPC: 1.28383 cumulative IPC: 1.28428 (Simulation time: 0 hr 0 min 52 sec) 
Heartbeat CPU  0 instructions:   22000000 cycles:   17130196 heartbeat IPC: 1.28441 cumulative IPC: 1.28428 (Simulation time: 0 hr 0 min 54 sec) 
Heartbeat CPU  0 instructions:   23000003 cycles:   17908904 heartbeat IPC: 1.28418 cumulative IPC: 1.28428 (Simulation time: 0 hr 0 min 57 sec) 
Heartbeat CPU  0 instructions:   24000000 cycles:   18687763 heartbeat IPC: 1.28393 cumulative IPC: 1.28426 (Simulation time: 0 hr 0 min 59 sec) 
Heartbeat CPU  0 instructions:   25000001 cycles:   19466108 heartbeat IPC: 1.28478 cumulative IPC: 1.28428 (Simulation time: 0 hr 1 min 2 sec) 
Heartbeat CPU  0 instructions:   26000001 cycles:   20244732 heartbeat IPC: 1.28432 cumulative IPC: 1.28428 (Simulation time: 0 hr 1 min 4 sec) 
Heartbeat CPU  0 instructions:   27000002 cycles:   21023373 heartbeat IPC: 1.28429 cumulative IPC: 1.28428 (Simulation time: 0 hr 1 min 7 sec) 
Heartbeat CPU  0 instructions:   28000000 cycles:   21801941 heartbeat IPC: 1.28441 cumulative IPC: 1.28429 (Simulation time: 0 hr 1 min 9 sec) 
Heartbeat CPU  0 instructions:   29000001 cycles:   22580500 heartbeat IPC: 1.28443 cumulative IPC: 1.28429 (Simulation time: 0 hr 1 min 12 sec) 
Heartbeat CPU  0 instructions:   30000002 cycles:   23359284 heartbeat IPC: 1.28405 cumulative IPC: 1.28429 (Simulation time: 0 hr 1 min 14 sec) 
Heartbeat CPU  0 instructions:   31000003 cycles:   24137921 heartbeat IPC: 1.28430 cumulative IPC: 1.28429 (Simulation time: 0 hr 1 min 17 sec) 
Heartbeat CPU  0 instructions:   32000000 cycles:   24916538 heartbeat IPC: 1.28432 cumulative IPC: 1.28429 (Simulation time: 0 hr 1 min 19 sec) 
Heartbeat CPU  0 instructions:   33000003 cycles:   25695194 heartbeat IPC: 1.28427 cumulative IPC: 1.28429 (Simulation time: 0 hr 1 min 22 sec) 
Heartbeat CPU  0 instructions:   34000002 cycles:   26464532 heartbeat IPC: 1.29982 cumulative IPC: 1.28474 (Simulation time: 0 hr 1 min 24 sec) 
Heartbeat CPU  0 instructions:   35000001 cycles:   27246702 heartbeat IPC: 1.27849 cumulative IPC: 1.28456 (Simulation time: 0 hr 1 min 26 sec) 
Heartbeat CPU  0 instructions:   36000000 cycles:   28027315 heartbeat IPC: 1.28104 cumulative IPC: 1.28446 (Simulation time: 0 hr 1 min 29 sec) 
Heartbeat CPU  0 instructions:   37000000 cycles:   28807984 heartbeat IPC: 1.28095 cumulative IPC: 1.28437 (Simulation time: 0 hr 1 min 31 sec) 
Heartbeat CPU  0 instructions:   38000001 cycles:   29588243 heartbeat IPC: 1.28163 cumulative IPC: 1.28429 (Simulation time: 0 hr 1 min 34 sec) 
Heartbeat CPU  0 instructions:   39000003 cycles:   30368762 heartbeat IPC: 1.28120 cumulative IPC: 1.28421 (Simulation time: 0 hr 1 min 36 sec) 
Heartbeat CPU  0 instructions:   40000000 cycles:   31149615 heartbeat IPC: 1.28065 cumulative IPC: 1.28412 (Simulation time: 0 hr 1 min 39 sec) 
Heartbeat CPU  0 instructions:   41000000 cycles:   31930545 heartbeat IPC: 1.28052 cumulative IPC: 1.28404 (Simulation time: 0 hr 1 min 42 sec) 
Heartbeat CPU  0 instructions:   42000002 cycles:   32710947 heartbeat IPC: 1.28139 cumulative IPC: 1.28397 (Simulation time: 0 hr 1 min 44 sec) 
Heartbeat CPU  0 instructions:   43000000 cycles:   33490994 heartbeat IPC: 1.28197 cumulative IPC: 1.28393 (Simulation time: 0 hr 1 min 46 sec) 
Heartbeat CPU  0 instructions:   44000000 cycles:   34270477 heartbeat IPC: 1.28290 cumulative IPC: 1.28390 (Simulation time: 0 hr 1 min 49 sec) 
Heartbeat CPU  0 instructions:   45000000 cycles:   35050172 heartbeat IPC: 1.28255 cumulative IPC: 1.28387 (Simulation time: 0 hr 1 min 51 sec) 
Heartbeat CPU  0 instructions:   46000002 cycles:   35829793 heartbeat IPC: 1.28268 cumulative IPC: 1.28385 (Simulation time: 0 hr 1 min 54 sec) 
Heartbeat CPU  0 instructions:   47000001 cycles:   36608793 heartbeat IPC: 1.28370 cumulative IPC: 1.28384 (Simulation time: 0 hr 1 min 56 sec) 
Heartbeat CPU  0 instructions:   48000000 cycles:   37387696 heartbeat IPC: 1.28386 cumulative IPC: 1.28384 (Simulation time: 0 hr 1 min 59 sec) 
Heartbeat CPU  0 instructions:   49000001 cycles:   38167617 heartbeat IPC: 1.28218 cumulative IPC: 1.28381 (Simulation time: 0 hr 2 min 1 sec) 
Heartbeat CPU  0 instructions:   50000002 cycles:   38947479 heartbeat IPC: 1.28228 cumulative IPC: 1.28378 (Simulation time: 0 hr 2 min 4 sec) 
Heartbeat CPU  0 instructions:   51000000 cycles:   39726400 heartbeat IPC: 1.28382 cumulative IPC: 1.28378 (Simulation time: 0 hr 2 min 6 sec) 
Heartbeat CPU  0 instructions:   52000000 cycles:   40505344 heartbeat IPC: 1.28379 cumulative IPC: 1.28378 (Simulation time: 0 hr 2 min 9 sec) 
Heartbeat CPU  0 instructions:   53000002 cycles:   41286151 heartbeat IPC: 1.28073 cumulative IPC: 1.28372 (Simulation time: 0 hr 2 min 11 sec) 
Heartbeat CPU  0 instructions:   54000000 cycles:   42066569 heartbeat IPC: 1.28136 cumulative IPC: 1.28368 (Simulation time: 0 hr 2 min 14 sec) 
Heartbeat CPU  0 instructions:   55000003 cycles:   42846529 heartbeat IPC: 1.28212 cumulative IPC: 1.28365 (Simulation time: 0 hr 2 min 16 sec) 
Heartbeat CPU  0 instructions:   56000000 cycles:   43626787 heartbeat IPC: 1.28162 cumulative IPC: 1.28361 (Simulation time: 0 hr 2 min 19 sec) 
Heartbeat CPU  0 instructions:   57000001 cycles:   44407928 heartbeat IPC: 1.28018 cumulative IPC: 1.28355 (Simulation time: 0 hr 2 min 21 sec) 
Heartbeat CPU  0 instructions:   58000000 cycles:   45188568 heartbeat IPC: 1.28100 cumulative IPC: 1.28351 (Simulation time: 0 hr 2 min 24 sec) 
Heartbeat CPU  0 instructions:   59000001 cycles:   45968892 heartbeat IPC: 1.28152 cumulative IPC: 1.28348 (Simulation time: 0 hr 2 min 26 sec) 
Heartbeat CPU  0 instructions:   60000000 cycles:   46749380 heartbeat IPC: 1.28125 cumulative IPC: 1.28344 (Simulation time: 0 hr 2 min 29 sec) 
Heartbeat CPU  0 instructions:   61000003 cycles:   47530417 heartbeat IPC: 1.28035 cumulative IPC: 1.28339 (Simulation time: 0 hr 2 min 31 sec) 
Heartbeat CPU  0 instructions:   62000002 cycles:   48309661 heartbeat IPC: 1.28329 cumulative IPC: 1.28339 (Simulation time: 0 hr 2 min 33 sec) 
Heartbeat CPU  0 instructions:   63000002 cycles:   49088968 heartbeat IPC: 1.28319 cumulative IPC: 1.28338 (Simulation time: 0 hr 2 min 36 sec) 
Heartbeat CPU  0 instructions:   64000000 cycles:   49868147 heartbeat IPC: 1.28340 cumulative IPC: 1.28338 (Simulation time: 0 hr 2 min 38 sec) 
Heartbeat CPU  0 instructions:   65000002 cycles:   50647651 heartbeat IPC: 1.28287 cumulative IPC: 1.28338 (Simulation time: 0 hr 2 min 41 sec) 
Heartbeat CPU  0 instructions:   66000001 cycles:   51426549 heartbeat IPC: 1.28386 cumulative IPC: 1.28338 (Simulation time: 0 hr 2 min 43 sec) 
Heartbeat CPU  0 instructions:   67000003 cycles:   52205572 heartbeat IPC: 1.28366 cumulative IPC: 1.28339 (Simulation time: 0 hr 2 min 46 sec) 
Heartbeat CPU  0 instructions:   68000000 cycles:   52985460 heartbeat IPC: 1.28223 cumulative IPC: 1.28337 (Simulation time: 0 hr 2 min 48 sec) 
Heartbeat CPU  0 instructions:   69000002 cycles:   53764866 heartbeat IPC: 1.28303 cumulative IPC: 1.28337 (Simulation time: 0 hr 2 min 51 sec) 
Heartbeat CPU  0 instructions:   70000001 cycles:   54544559 heartbeat IPC: 1.28255 cumulative IPC: 1.28335 (Simulation time: 0 hr 2 min 53 sec) 
Heartbeat CPU  0 instructions:   71000003 cycles:   55324534 heartbeat IPC: 1.28209 cumulative IPC: 1.28334 (Simulation time: 0 hr 2 min 56 sec) 
Heartbeat CPU  0 instructions:   72000000 cycles:   56104732 heartbeat IPC: 1.28172 cumulative IPC: 1.28331 (Simulation time: 0 hr 2 min 58 sec) 
Heartbeat CPU  0 instructions:   73000000 cycles:   56885901 heartbeat IPC: 1.28013 cumulative IPC: 1.28327 (Simulation time: 0 hr 3 min 1 sec) 
Heartbeat CPU  0 instructions:   74000002 cycles:   57666454 heartbeat IPC: 1.28115 cumulative IPC: 1.28324 (Simulation time: 0 hr 3 min 3 sec) 
Heartbeat CPU  0 instructions:   75000000 cycles:   58447639 heartbeat IPC: 1.28010 cumulative IPC: 1.28320 (Simulation time: 0 hr 3 min 6 sec) 
Heartbeat CPU  0 instructions:   76000000 cycles:   59228358 heartbeat IPC: 1.28087 cumulative IPC: 1.28317 (Simulation time: 0 hr 3 min 8 sec) 
Heartbeat CPU  0 instructions:   77000003 cycles:   60008386 heartbeat IPC: 1.28201 cumulative IPC: 1.28315 (Simulation time: 0 hr 3 min 11 sec) 
Heartbeat CPU  0 instructions:   78000001 cycles:   60788556 heartbeat IPC: 1.28177 cumulative IPC: 1.28314 (Simulation time: 0 hr 3 min 13 sec) 
Heartbeat CPU  0 instructions:   79000001 cycles:   61569871 heartbeat IPC: 1.27989 cumulative IPC: 1.28310 (Simulation time: 0 hr 3 min 16 sec) 
Heartbeat CPU  0 instructions:   80000000 cycles:   62350068 heartbeat IPC: 1.28173 cumulative IPC: 1.28308 (Simulation time: 0 hr 3 min 18 sec) 
Heartbeat CPU  0 instructions:   81000001 cycles:   63129032 heartbeat IPC: 1.28376 cumulative IPC: 1.28309 (Simulation time: 0 hr 3 min 21 sec) 
Heartbeat CPU  0 instructions:   82000002 cycles:   63907548 heartbeat IPC: 1.28450 cumulative IPC: 1.28310 (Simulation time: 0 hr 3 min 23 sec) 
Heartbeat CPU  0 instructions:   83000000 cycles:   64688759 heartbeat IPC: 1.28006 cumulative IPC: 1.28307 (Simulation time: 0 hr 3 min 26 sec) 
Heartbeat CPU  0 instructions:   84000000 cycles:   65467884 heartbeat IPC: 1.28349 cumulative IPC: 1.28307 (Simulation time: 0 hr 3 min 28 sec) 
Heartbeat CPU  0 instructions:   85000002 cycles:   66246778 heartbeat IPC: 1.28387 cumulative IPC: 1.28308 (Simulation time: 0 hr 3 min 30 sec) 
Heartbeat CPU  0 instructions:   86000001 cycles:   67025830 heartbeat IPC: 1.28361 cumulative IPC: 1.28309 (Simulation time: 0 hr 3 min 33 sec) 
Heartbeat CPU  0 instructions:   87000001 cycles:   67805097 heartbeat IPC: 1.28326 cumulative IPC: 1.28309 (Simulation time: 0 hr 3 min 35 sec) 
Heartbeat CPU  0 instructions:   88000000 cycles:   68584284 heartbeat IPC: 1.28339 cumulative IPC: 1.28309 (Simulation time: 0 hr 3 min 38 sec) 
Heartbeat CPU  0 instructions:   89000001 cycles:   69364437 heartbeat IPC: 1.28180 cumulative IPC: 1.28308 (Simulation time: 0 hr 3 min 40 sec) 
Heartbeat CPU  0 instructions:   90000003 cycles:   70144644 heartbeat IPC: 1.28171 cumulative IPC: 1.28306 (Simulation time: 0 hr 3 min 43 sec) 
Heartbeat CPU  0 instructions:   91000001 cycles:   70924934 heartbeat IPC: 1.28157 cumulative IPC: 1.28305 (Simulation time: 0 hr 3 min 45 sec) 
Heartbeat CPU  0 instructions:   92000000 cycles:   71705571 heartbeat IPC: 1.28100 cumulative IPC: 1.28302 (Simulation time: 0 hr 3 min 48 sec) 
Heartbeat CPU  0 instructions:   93000002 cycles:   72486064 heartbeat IPC: 1.28124 cumulative IPC: 1.28301 (Simulation time: 0 hr 3 min 50 sec) 
Heartbeat CPU  0 instructions:   94000000 cycles:   73266413 heartbeat IPC: 1.28148 cumulative IPC: 1.28299 (Simulation time: 0 hr 3 min 53 sec) 
Heartbeat CPU  0 instructions:   95000001 cycles:   74046483 heartbeat IPC: 1.28194 cumulative IPC: 1.28298 (Simulation time: 0 hr 3 min 55 sec) 
Heartbeat CPU  0 instructions:   96000000 cycles:   74826920 heartbeat IPC: 1.28133 cumulative IPC: 1.28296 (Simulation time: 0 hr 3 min 58 sec) 
Heartbeat CPU  0 instructions:   97000002 cycles:   75608183 heartbeat IPC: 1.27998 cumulative IPC: 1.28293 (Simulation time: 0 hr 4 min 0 sec) 
Heartbeat CPU  0 instructions:   98000001 cycles:   76387520 heartbeat IPC: 1.28314 cumulative IPC: 1.28293 (Simulation time: 0 hr 4 min 3 sec) 
Heartbeat CPU  0 instructions:   99000003 cycles:   77166582 heartbeat IPC: 1.28360 cumulative IPC: 1.28294 (Simulation time: 0 hr 4 min 5 sec) 
Heartbeat CPU  0 instructions:  100000000 cycles:   77945446 heartbeat IPC: 1.28392 cumulative IPC: 1.28295 (Simulation time: 0 hr 4 min 8 sec) 

Warmup complete CPU  0 instructions:  100000001 cycles:   77945447 (Simulation time: 0 hr 4 min 8 sec) 

Heartbeat CPU  0 instructions:  101000003 cycles:   79378574 heartbeat IPC: 0.69778 cumulative IPC: 0.69778 (Simulation time: 0 hr 4 min 11 sec) 
Heartbeat CPU  0 instructions:  102000000 cycles:   80808407 heartbeat IPC: 0.69938 cumulative IPC: 0.69858 (Simulation time: 0 hr 4 min 14 sec) 
Heartbeat CPU  0 instructions:  103000002 cycles:   82245559 heartbeat IPC: 0.69582 cumulative IPC: 0.69766 (Simulation time: 0 hr 4 min 17 sec) 
Heartbeat CPU  0 instructions:  104000000 cycles:   83645740 heartbeat IPC: 0.71419 cumulative IPC: 0.70172 (Simulation time: 0 hr 4 min 20 sec) 
Heartbeat CPU  0 instructions:  105000003 cycles:   85090478 heartbeat IPC: 0.69217 cumulative IPC: 0.69979 (Simulation time: 0 hr 4 min 23 sec) 
Heartbeat CPU  0 instructions:  106000002 cycles:   86483703 heartbeat IPC: 0.71776 cumulative IPC: 0.70272 (Simulation time: 0 hr 4 min 26 sec) 
Heartbeat CPU  0 instructions:  107000000 cycles:   87883695 heartbeat IPC: 0.71429 cumulative IPC: 0.70435 (Simulation time: 0 hr 4 min 29 sec) 
Heartbeat CPU  0 instructions:  108000000 cycles:   89307443 heartbeat IPC: 0.70237 cumulative IPC: 0.70410 (Simulation time: 0 hr 4 min 32 sec) 
Heartbeat CPU  0 instructions:  109000003 cycles:   90732983 heartbeat IPC: 0.70149 cumulative IPC: 0.70381 (Simulation time: 0 hr 4 min 35 sec) 
Heartbeat CPU  0 instructions:  110000001 cycles:   92144571 heartbeat IPC: 0.70842 cumulative IPC: 0.70427 (Simulation time: 0 hr 4 min 38 sec) 
Heartbeat CPU  0 instructions:  111000000 cycles:   93532639 heartbeat IPC: 0.72043 cumulative IPC: 0.70571 (Simulation time: 0 hr 4 min 41 sec) 
Heartbeat CPU  0 instructions:  112000000 cycles:   94927375 heartbeat IPC: 0.71698 cumulative IPC: 0.70663 (Simulation time: 0 hr 4 min 44 sec) 
Heartbeat CPU  0 instructions:  113000000 cycles:   96341264 heartbeat IPC: 0.70727 cumulative IPC: 0.70668 (Simulation time: 0 hr 4 min 47 sec) 
Heartbeat CPU  0 instructions:  114000002 cycles:   97727630 heartbeat IPC: 0.72131 cumulative IPC: 0.70771 (Simulation time: 0 hr 4 min 50 sec) 
Heartbeat CPU  0 instructions:  115000000 cycles:   99129367 heartbeat IPC: 0.71340 cumulative IPC: 0.70808 (Simulation time: 0 hr 4 min 53 sec) 
Heartbeat CPU  0 instructions:  116000000 cycles:  100534095 heartbeat IPC: 0.71188 cumulative IPC: 0.70832 (Simulation time: 0 hr 4 min 56 sec) 
Heartbeat CPU  0 instructions:  117000000 cycles:  101940822 heartbeat IPC: 0.71087 cumulative IPC: 0.70847 (Simulation time: 0 hr 4 min 59 sec) 
Heartbeat CPU  0 instructions:  118000003 cycles:  103329828 heartbeat IPC: 0.71994 cumulative IPC: 0.70910 (Simulation time: 0 hr 5 min 2 sec) 
Heartbeat CPU  0 instructions:  119000001 cycles:  104724273 heartbeat IPC: 0.71713 cumulative IPC: 0.70952 (Simulation time: 0 hr 5 min 5 sec) 
Heartbeat CPU  0 instructions:  120000000 cycles:  106135585 heartbeat IPC: 0.70856 cumulative IPC: 0.70947 (Simulation time: 0 hr 5 min 8 sec) 
Heartbeat CPU  0 instructions:  121000000 cycles:  107528938 heartbeat IPC: 0.71769 cumulative IPC: 0.70986 (Simulation time: 0 hr 5 min 11 sec) 
Heartbeat CPU  0 instructions:  122000002 cycles:  108941666 heartbeat IPC: 0.70785 cumulative IPC: 0.70976 (Simulation time: 0 hr 5 min 14 sec) 
Heartbeat CPU  0 instructions:  123000000 cycles:  110361421 heartbeat IPC: 0.70435 cumulative IPC: 0.70953 (Simulation time: 0 hr 5 min 17 sec) 
Heartbeat CPU  0 instructions:  124000000 cycles:  111776906 heartbeat IPC: 0.70647 cumulative IPC: 0.70940 (Simulation time: 0 hr 5 min 20 sec) 
Heartbeat CPU  0 instructions:  125000002 cycles:  113189886 heartbeat IPC: 0.70773 cumulative IPC: 0.70933 (Simulation time: 0 hr 5 min 23 sec) 
Heartbeat CPU  0 instructions:  126000000 cycles:  114588085 heartbeat IPC: 0.71520 cumulative IPC: 0.70956 (Simulation time: 0 hr 5 min 26 sec) 
Heartbeat CPU  0 instructions:  127000002 cycles:  116021731 heartbeat IPC: 0.69752 cumulative IPC: 0.70910 (Simulation time: 0 hr 5 min 29 sec) 
Heartbeat CPU  0 instructions:  128000000 cycles:  117427986 heartbeat IPC: 0.71111 cumulative IPC: 0.70917 (Simulation time: 0 hr 5 min 32 sec) 
Heartbeat CPU  0 instructions:  129000001 cycles:  118825197 heartbeat IPC: 0.71571 cumulative IPC: 0.70940 (Simulation time: 0 hr 5 min 35 sec) 
Heartbeat CPU  0 instructions:  130000003 cycles:  120255215 heartbeat IPC: 0.69929 cumulative IPC: 0.70906 (Simulation time: 0 hr 5 min 39 sec) 
Heartbeat CPU  0 instructions:  131000003 cycles:  121698286 heartbeat IPC: 0.69297 cumulative IPC: 0.70853 (Simulation time: 0 hr 5 min 42 sec) 
Heartbeat CPU  0 instructions:  132000000 cycles:  123106629 heartbeat IPC: 0.71005 cumulative IPC: 0.70857 (Simulation time: 0 hr 5 min 45 sec) 
Heartbeat CPU  0 instructions:  133000000 cycles:  124504955 heartbeat IPC: 0.71514 cumulative IPC: 0.70877 (Simulation time: 0 hr 5 min 49 sec) 
Heartbeat CPU  0 instructions:  134000002 cycles:  125669762 heartbeat IPC: 0.85851 cumulative IPC: 0.71243 (Simulation time: 0 hr 5 min 52 sec) 
Heartbeat CPU  0 instructions:  135000002 cycles:  126838359 heartbeat IPC: 0.85573 cumulative IPC: 0.71585 (Simulation time: 0 hr 5 min 55 sec) 
Heartbeat CPU  0 instructions:  136000000 cycles:  127996637 heartbeat IPC: 0.86335 cumulative IPC: 0.71926 (Simulation time: 0 hr 5 min 57 sec) 
Heartbeat CPU  0 instructions:  137000002 cycles:  129151024 heartbeat IPC: 0.86626 cumulative IPC: 0.72258 (Simulation time: 0 hr 6 min 0 sec) 
Heartbeat CPU  0 instructions:  138000003 cycles:  130296745 heartbeat IPC: 0.87281 cumulative IPC: 0.72587 (Simulation time: 0 hr 6 min 3 sec) 
Heartbeat CPU  0 instructions:  139000001 cycles:  131442959 heartbeat IPC: 0.87244 cumulative IPC: 0.72901 (Simulation time: 0 hr 6 min 5 sec) 
Heartbeat CPU  0 instructions:  140000000 cycles:  132544082 heartbeat IPC: 0.90816 cumulative IPC: 0.73262 (Simulation time: 0 hr 6 min 8 sec) 
Heartbeat CPU  0 instructions:  141000003 cycles:  133641609 heartbeat IPC: 0.91114 cumulative IPC: 0.73614 (Simulation time: 0 hr 6 min 11 sec) 
Heartbeat CPU  0 instructions:  142000003 cycles:  134740762 heartbeat IPC: 0.90979 cumulative IPC: 0.73950 (Simulation time: 0 hr 6 min 13 sec) 
Heartbeat CPU  0 instructions:  143000000 cycles:  136052889 heartbeat IPC: 0.76212 cumulative IPC: 0.74001 (Simulation time: 0 hr 6 min 16 sec) 
Heartbeat CPU  0 instructions:  144000000 cycles:  137471308 heartbeat IPC: 0.70501 cumulative IPC: 0.73917 (Simulation time: 0 hr 6 min 19 sec) 
Heartbeat CPU  0 instructions:  145000002 cycles:  138845924 heartbeat IPC: 0.72748 cumulative IPC: 0.73891 (Simulation time: 0 hr 6 min 22 sec) 
Heartbeat CPU  0 instructions:  146000000 cycles:  140219994 heartbeat IPC: 0.72776 cumulative IPC: 0.73866 (Simulation time: 0 hr 6 min 25 sec) 
Heartbeat CPU  0 instructions:  147000002 cycles:  141601968 heartbeat IPC: 0.72360 cumulative IPC: 0.73834 (Simulation time: 0 hr 6 min 28 sec) 
Heartbeat CPU  0 instructions:  148000000 cycles:  142981974 heartbeat IPC: 0.72463 cumulative IPC: 0.73805 (Simulation time: 0 hr 6 min 31 sec) 
Heartbeat CPU  0 instructions:  149000001 cycles:  144367171 heartbeat IPC: 0.72192 cumulative IPC: 0.73771 (Simulation time: 0 hr 6 min 34 sec) 
Heartbeat CPU  0 instructions:  150000003 cycles:  145771232 heartbeat IPC: 0.71222 cumulative IPC: 0.73718 (Simulation time: 0 hr 6 min 37 sec) 
Heartbeat CPU  0 instructions:  151000001 cycles:  147181126 heartbeat IPC: 0.70927 cumulative IPC: 0.73661 (Simulation time: 0 hr 6 min 40 sec) 
Heartbeat CPU  0 instructions:  152000000 cycles:  148589408 heartbeat IPC: 0.71008 cumulative IPC: 0.73609 (Simulation time: 0 hr 6 min 43 sec) 
Heartbeat CPU  0 instructions:  153000002 cycles:  149959962 heartbeat IPC: 0.72963 cumulative IPC: 0.73596 (Simulation time: 0 hr 6 min 46 sec) 
Heartbeat CPU  0 instructions:  154000000 cycles:  151353683 heartbeat IPC: 0.71750 cumulative IPC: 0.73561 (Simulation time: 0 hr 6 min 49 sec) 
Heartbeat CPU  0 instructions:  155000000 cycles:  152760896 heartbeat IPC: 0.71062 cumulative IPC: 0.73514 (Simulation time: 0 hr 6 min 52 sec) 
Heartbeat CPU  0 instructions:  156000000 cycles:  154160436 heartbeat IPC: 0.71452 cumulative IPC: 0.73476 (Simulation time: 0 hr 6 min 55 sec) 
Heartbeat CPU  0 instructions:  157000001 cycles:  155554123 heartbeat IPC: 0.71752 cumulative IPC: 0.73445 (Simulation time: 0 hr 6 min 58 sec) 
Heartbeat CPU  0 instructions:  158000003 cycles:  156959560 heartbeat IPC: 0.71152 cumulative IPC: 0.73405 (Simulation time: 0 hr 7 min 2 sec) 
Heartbeat CPU  0 instructions:  159000000 cycles:  158384535 heartbeat IPC: 0.70176 cumulative IPC: 0.73347 (Simulation time: 0 hr 7 min 5 sec) 
Heartbeat CPU  0 instructions:  160000000 cycles:  159774326 heartbeat IPC: 0.71953 cumulative IPC: 0.73324 (Simulation time: 0 hr 7 min 8 sec) 
Heartbeat CPU  0 instructions:  161000003 cycles:  161188961 heartbeat IPC: 0.70690 cumulative IPC: 0.73279 (Simulation time: 0 hr 7 min 11 sec) 
Heartbeat CPU  0 instructions:  162000003 cycles:  162590118 heartbeat IPC: 0.71370 cumulative IPC: 0.73247 (Simulation time: 0 hr 7 min 14 sec) 
Heartbeat CPU  0 instructions:  163000001 cycles:  163991480 heartbeat IPC: 0.71359 cumulative IPC: 0.73217 (Simulation time: 0 hr 7 min 17 sec) 
Heartbeat CPU  0 instructions:  164000000 cycles:  165399854 heartbeat IPC: 0.71004 cumulative IPC: 0.73181 (Simulation time: 0 hr 7 min 20 sec) 
Heartbeat CPU  0 instructions:  165000000 cycles:  166807085 heartbeat IPC: 0.71062 cumulative IPC: 0.73147 (Simulation time: 0 hr 7 min 23 sec) 
Heartbeat CPU  0 instructions:  166000000 cycles:  168226300 heartbeat IPC: 0.70461 cumulative IPC: 0.73105 (Simulation time: 0 hr 7 min 26 sec) 
Heartbeat CPU  0 instructions:  167000002 cycles:  169625850 heartbeat IPC: 0.71452 cumulative IPC: 0.73080 (Simulation time: 0 hr 7 min 29 sec) 
Heartbeat CPU  0 instructions:  168000000 cycles:  171017271 heartbeat IPC: 0.71869 cumulative IPC: 0.73062 (Simulation time: 0 hr 7 min 32 sec) 
Heartbeat CPU  0 instructions:  169000001 cycles:  172402316 heartbeat IPC: 0.72200 cumulative IPC: 0.73049 (Simulation time: 0 hr 7 min 35 sec) 
Heartbeat CPU  0 instructions:  170000003 cycles:  173833839 heartbeat IPC: 0.69856 cumulative IPC: 0.73002 (Simulation time: 0 hr 7 min 38 sec) 
Heartbeat CPU  0 instructions:  171000002 cycles:  175220501 heartbeat IPC: 0.72116 cumulative IPC: 0.72989 (Simulation time: 0 hr 7 min 41 sec) 
Heartbeat CPU  0 instructions:  172000000 cycles:  176627455 heartbeat IPC: 0.71075 cumulative IPC: 0.72962 (Simulation time: 0 hr 7 min 44 sec) 
Heartbeat CPU  0 instructions:  173000002 cycles:  178006336 heartbeat IPC: 0.72523 cumulative IPC: 0.72956 (Simulation time: 0 hr 7 min 47 sec) 
Heartbeat CPU  0 instructions:  174000000 cycles:  179379874 heartbeat IPC: 0.72805 cumulative IPC: 0.72954 (Simulation time: 0 hr 7 min 50 sec) 
Heartbeat CPU  0 instructions:  175000001 cycles:  180751857 heartbeat IPC: 0.72887 cumulative IPC: 0.72953 (Simulation time: 0 hr 7 min 53 sec) 
Heartbeat CPU  0 instructions:  176000000 cycles:  182131092 heartbeat IPC: 0.72504 cumulative IPC: 0.72947 (Simulation time: 0 hr 7 min 56 sec) 
Heartbeat CPU  0 instructions:  177000001 cycles:  183543246 heartbeat IPC: 0.70814 cumulative IPC: 0.72918 (Simulation time: 0 hr 7 min 59 sec) 
Heartbeat CPU  0 instructions:  178000000 cycles:  184933223 heartbeat IPC: 0.71944 cumulative IPC: 0.72906 (Simulation time: 0 hr 8 min 2 sec) 
Heartbeat CPU  0 instructions:  179000002 cycles:  186323223 heartbeat IPC: 0.71943 cumulative IPC: 0.72893 (Simulation time: 0 hr 8 min 5 sec) 
Heartbeat CPU  0 instructions:  180000000 cycles:  187698837 heartbeat IPC: 0.72695 cumulative IPC: 0.72891 (Simulation time: 0 hr 8 min 8 sec) 
Heartbeat CPU  0 instructions:  181000002 cycles:  189093859 heartbeat IPC: 0.71684 cumulative IPC: 0.72876 (Simulation time: 0 hr 8 min 11 sec) 
Heartbeat CPU  0 instructions:  182000003 cycles:  190481476 heartbeat IPC: 0.72066 cumulative IPC: 0.72866 (Simulation time: 0 hr 8 min 14 sec) 
Heartbeat CPU  0 instructions:  183000001 cycles:  191868915 heartbeat IPC: 0.72075 cumulative IPC: 0.72856 (Simulation time: 0 hr 8 min 17 sec) 
Heartbeat CPU  0 instructions:  184000000 cycles:  193277867 heartbeat IPC: 0.70975 cumulative IPC: 0.72833 (Simulation time: 0 hr 8 min 20 sec) 
Heartbeat CPU  0 instructions:  185000003 cycles:  194703197 heartbeat IPC: 0.70159 cumulative IPC: 0.72800 (Simulation time: 0 hr 8 min 23 sec) 
Heartbeat CPU  0 instructions:  186000000 cycles:  196078337 heartbeat IPC: 0.72720 cumulative IPC: 0.72799 (Simulation time: 0 hr 8 min 26 sec) 
Heartbeat CPU  0 instructions:  187000000 cycles:  197478586 heartbeat IPC: 0.71416 cumulative IPC: 0.72783 (Simulation time: 0 hr 8 min 30 sec) 
Heartbeat CPU  0 instructions:  188000000 cycles:  198891787 heartbeat IPC: 0.70761 cumulative IPC: 0.72760 (Simulation time: 0 hr 8 min 33 sec) 
Heartbeat CPU  0 instructions:  189000001 cycles:  200330900 heartbeat IPC: 0.69487 cumulative IPC: 0.72721 (Simulation time: 0 hr 8 min 36 sec) 
Heartbeat CPU  0 instructions:  190000003 cycles:  201708357 heartbeat IPC: 0.72598 cumulative IPC: 0.72720 (Simulation time: 0 hr 8 min 39 sec) 
Heartbeat CPU  0 instructions:  191000002 cycles:  203085431 heartbeat IPC: 0.72618 cumulative IPC: 0.72719 (Simulation time: 0 hr 8 min 42 sec) 
Heartbeat CPU  0 instructions:  192000000 cycles:  204516071 heartbeat IPC: 0.69899 cumulative IPC: 0.72687 (Simulation time: 0 hr 8 min 45 sec) 
Heartbeat CPU  0 instructions:  193000002 cycles:  205907799 heartbeat IPC: 0.71853 cumulative IPC: 0.72678 (Simulation time: 0 hr 8 min 48 sec) 
Heartbeat CPU  0 instructions:  194000003 cycles:  207324471 heartbeat IPC: 0.70588 cumulative IPC: 0.72655 (Simulation time: 0 hr 8 min 51 sec) 
Heartbeat CPU  0 instructions:  195000001 cycles:  208701605 heartbeat IPC: 0.72614 cumulative IPC: 0.72654 (Simulation time: 0 hr 8 min 54 sec) 
Heartbeat CPU  0 instructions:  196000000 cycles:  210092401 heartbeat IPC: 0.71901 cumulative IPC: 0.72646 (Simulation time: 0 hr 8 min 57 sec) 
Heartbeat CPU  0 instructions:  197000001 cycles:  211498622 heartbeat IPC: 0.71113 cumulative IPC: 0.72630 (Simulation time: 0 hr 9 min 0 sec) 
Heartbeat CPU  0 instructions:  198000000 cycles:  212898135 heartbeat IPC: 0.71453 cumulative IPC: 0.72618 (Simulation time: 0 hr 9 min 3 sec) 
Heartbeat CPU  0 instructions:  199000002 cycles:  214313177 heartbeat IPC: 0.70669 cumulative IPC: 0.72598 (Simulation time: 0 hr 9 min 6 sec) 
Heartbeat CPU  0 instructions:  200000000 cycles:  215714126 heartbeat IPC: 0.71380 cumulative IPC: 0.72585 (Simulation time: 0 hr 9 min 9 sec) 
Heartbeat CPU  0 instructions:  201000001 cycles:  217103755 heartbeat IPC: 0.71962 cumulative IPC: 0.72579 (Simulation time: 0 hr 9 min 12 sec) 
Heartbeat CPU  0 instructions:  202000003 cycles:  218482872 heartbeat IPC: 0.72510 cumulative IPC: 0.72579 (Simulation time: 0 hr 9 min 15 sec) 
Heartbeat CPU  0 instructions:  203000001 cycles:  219876812 heartbeat IPC: 0.71739 cumulative IPC: 0.72570 (Simulation time: 0 hr 9 min 18 sec) 
Heartbeat CPU  0 instructions:  204000000 cycles:  221259233 heartbeat IPC: 0.72337 cumulative IPC: 0.72568 (Simulation time: 0 hr 9 min 21 sec) 
Heartbeat CPU  0 instructions:  205000001 cycles:  222637420 heartbeat IPC: 0.72559 cumulative IPC: 0.72568 (Simulation time: 0 hr 9 min 24 sec) 
Heartbeat CPU  0 instructions:  206000000 cycles:  224026620 heartbeat IPC: 0.71984 cumulative IPC: 0.72562 (Simulation time: 0 hr 9 min 27 sec) 
Heartbeat CPU  0 instructions:  207000001 cycles:  225435552 heartbeat IPC: 0.70976 cumulative IPC: 0.72547 (Simulation time: 0 hr 9 min 30 sec) 
Heartbeat CPU  0 instructions:  208000000 cycles:  226824205 heartbeat IPC: 0.72012 cumulative IPC: 0.72542 (Simulation time: 0 hr 9 min 33 sec) 
Heartbeat CPU  0 instructions:  209000001 cycles:  228203794 heartbeat IPC: 0.72485 cumulative IPC: 0.72542 (Simulation time: 0 hr 9 min 36 sec) 
Heartbeat CPU  0 instructions:  210000000 cycles:  229606213 heartbeat IPC: 0.71305 cumulative IPC: 0.72530 (Simulation time: 0 hr 9 min 39 sec) 
Heartbeat CPU  0 instructions:  211000002 cycles:  231014689 heartbeat IPC: 0.70999 cumulative IPC: 0.72516 (Simulation time: 0 hr 9 min 42 sec) 
Heartbeat CPU  0 instructions:  212000000 cycles:  232400195 heartbeat IPC: 0.72176 cumulative IPC: 0.72513 (Simulation time: 0 hr 9 min 45 sec) 
Heartbeat CPU  0 instructions:  213000000 cycles:  233803860 heartbeat IPC: 0.71242 cumulative IPC: 0.72502 (Simulation time: 0 hr 9 min 48 sec) 
Heartbeat CPU  0 instructions:  214000003 cycles:  235218356 heartbeat IPC: 0.70697 cumulative IPC: 0.72485 (Simulation time: 0 hr 9 min 51 sec) 
Heartbeat CPU  0 instructions:  215000001 cycles:  236613225 heartbeat IPC: 0.71691 cumulative IPC: 0.72478 (Simulation time: 0 hr 9 min 54 sec) 
Heartbeat CPU  0 instructions:  216000000 cycles:  238012039 heartbeat IPC: 0.71489 cumulative IPC: 0.72470 (Simulation time: 0 hr 9 min 57 sec) 
Heartbeat CPU  0 instructions:  217000003 cycles:  239412921 heartbeat IPC: 0.71384 cumulative IPC: 0.72460 (Simulation time: 0 hr 10 min 0 sec) 
Heartbeat CPU  0 instructions:  218000001 cycles:  240852749 heartbeat IPC: 0.69453 cumulative IPC: 0.72434 (Simulation time: 0 hr 10 min 4 sec) 
Heartbeat CPU  0 instructions:  219000002 cycles:  242237502 heartbeat IPC: 0.72215 cumulative IPC: 0.72432 (Simulation time: 0 hr 10 min 7 sec) 
Heartbeat CPU  0 instructions:  220000000 cycles:  243634410 heartbeat IPC: 0.71587 cumulative IPC: 0.72425 (Simulation time: 0 hr 10 min 10 sec) 
Heartbeat CPU  0 instructions:  221000001 cycles:  245048690 heartbeat IPC: 0.70707 cumulative IPC: 0.72410 (Simulation time: 0 hr 10 min 13 sec) 
Heartbeat CPU  0 instructions:  222000003 cycles:  246454915 heartbeat IPC: 0.71113 cumulative IPC: 0.72399 (Simulation time: 0 hr 10 min 16 sec) 
Heartbeat CPU  0 instructions:  223000001 cycles:  247847218 heartbeat IPC: 0.71823 cumulative IPC: 0.72395 (Simulation time: 0 hr 10 min 19 sec) 
Heartbeat CPU  0 instructions:  224000000 cycles:  249233444 heartbeat IPC: 0.72138 cumulative IPC: 0.72393 (Simulation time: 0 hr 10 min 22 sec) 
Heartbeat CPU  0 instructions:  225000002 cycles:  250637994 heartbeat IPC: 0.71197 cumulative IPC: 0.72383 (Simulation time: 0 hr 10 min 25 sec) 
Heartbeat CPU  0 instructions:  226000000 cycles:  252044346 heartbeat IPC: 0.71106 cumulative IPC: 0.72373 (Simulation time: 0 hr 10 min 28 sec) 
Heartbeat CPU  0 instructions:  227000001 cycles:  253459199 heartbeat IPC: 0.70679 cumulative IPC: 0.72359 (Simulation time: 0 hr 10 min 31 sec) 
Heartbeat CPU  0 instructions:  228000000 cycles:  254846758 heartbeat IPC: 0.72069 cumulative IPC: 0.72357 (Simulation time: 0 hr 10 min 34 sec) 
Heartbeat CPU  0 instructions:  229000001 cycles:  256285987 heartbeat IPC: 0.69482 cumulative IPC: 0.72334 (Simulation time: 0 hr 10 min 37 sec) 
Heartbeat CPU  0 instructions:  230000002 cycles:  257668113 heartbeat IPC: 0.72352 cumulative IPC: 0.72334 (Simulation time: 0 hr 10 min 40 sec) 
Heartbeat CPU  0 instructions:  231000003 cycles:  259051087 heartbeat IPC: 0.72308 cumulative IPC: 0.72333 (Simulation time: 0 hr 10 min 43 sec) 
Heartbeat CPU  0 instructions:  232000000 cycles:  260455175 heartbeat IPC: 0.71220 cumulative IPC: 0.72325 (Simulation time: 0 hr 10 min 46 sec) 
Heartbeat CPU  0 instructions:  233000001 cycles:  261860550 heartbeat IPC: 0.71155 cumulative IPC: 0.72316 (Simulation time: 0 hr 10 min 49 sec) 
Heartbeat CPU  0 instructions:  234000003 cycles:  263273207 heartbeat IPC: 0.70789 cumulative IPC: 0.72304 (Simulation time: 0 hr 10 min 52 sec) 
Heartbeat CPU  0 instructions:  235000001 cycles:  264652206 heartbeat IPC: 0.72516 cumulative IPC: 0.72306 (Simulation time: 0 hr 10 min 55 sec) 
Heartbeat CPU  0 instructions:  236000000 cycles:  266047802 heartbeat IPC: 0.71654 cumulative IPC: 0.72301 (Simulation time: 0 hr 10 min 58 sec) 
Heartbeat CPU  0 instructions:  237000001 cycles:  267443927 heartbeat IPC: 0.71627 cumulative IPC: 0.72296 (Simulation time: 0 hr 11 min 1 sec) 
Heartbeat CPU  0 instructions:  238000002 cycles:  268825751 heartbeat IPC: 0.72368 cumulative IPC: 0.72297 (Simulation time: 0 hr 11 min 4 sec) 
Heartbeat CPU  0 instructions:  239000002 cycles:  270220566 heartbeat IPC: 0.71694 cumulative IPC: 0.72292 (Simulation time: 0 hr 11 min 7 sec) 
Heartbeat CPU  0 instructions:  240000000 cycles:  271634319 heartbeat IPC: 0.70734 cumulative IPC: 0.72281 (Simulation time: 0 hr 11 min 10 sec) 
Heartbeat CPU  0 instructions:  241000001 cycles:  273031675 heartbeat IPC: 0.71564 cumulative IPC: 0.72276 (Simulation time: 0 hr 11 min 13 sec) 
Heartbeat CPU  0 instructions:  242000000 cycles:  274417824 heartbeat IPC: 0.72142 cumulative IPC: 0.72275 (Simulation time: 0 hr 11 min 16 sec) 
Heartbeat CPU  0 instructions:  243000002 cycles:  275800074 heartbeat IPC: 0.72346 cumulative IPC: 0.72275 (Simulation time: 0 hr 11 min 19 sec) 
Heartbeat CPU  0 instructions:  244000000 cycles:  277223788 heartbeat IPC: 0.70239 cumulative IPC: 0.72261 (Simulation time: 0 hr 11 min 22 sec) 
Heartbeat CPU  0 instructions:  245000000 cycles:  278612458 heartbeat IPC: 0.72011 cumulative IPC: 0.72259 (Simulation time: 0 hr 11 min 25 sec) 
Heartbeat CPU  0 instructions:  246000003 cycles:  280031643 heartbeat IPC: 0.70463 cumulative IPC: 0.72246 (Simulation time: 0 hr 11 min 28 sec) 
Heartbeat CPU  0 instructions:  247000001 cycles:  281416168 heartbeat IPC: 0.72227 cumulative IPC: 0.72246 (Simulation time: 0 hr 11 min 31 sec) 
Heartbeat CPU  0 instructions:  248000000 cycles:  282801366 heartbeat IPC: 0.72192 cumulative IPC: 0.72246 (Simulation time: 0 hr 11 min 34 sec) 
Heartbeat CPU  0 instructions:  249000001 cycles:  284222761 heartbeat IPC: 0.70353 cumulative IPC: 0.72233 (Simulation time: 0 hr 11 min 37 sec) 
Heartbeat CPU  0 instructions:  250000001 cycles:  285624022 heartbeat IPC: 0.71364 cumulative IPC: 0.72227 (Simulation time: 0 hr 11 min 41 sec) 
Heartbeat CPU  0 instructions:  251000001 cycles:  287599577 heartbeat IPC: 0.50619 cumulative IPC: 0.72023 (Simulation time: 0 hr 11 min 43 sec) 
Heartbeat CPU  0 instructions:  252000000 cycles:  289318737 heartbeat IPC: 0.58168 cumulative IPC: 0.71911 (Simulation time: 0 hr 11 min 46 sec) 
Heartbeat CPU  0 instructions:  253000000 cycles:  290879591 heartbeat IPC: 0.64067 cumulative IPC: 0.71853 (Simulation time: 0 hr 11 min 48 sec) 
Heartbeat CPU  0 instructions:  254000003 cycles:  292335544 heartbeat IPC: 0.68684 cumulative IPC: 0.71832 (Simulation time: 0 hr 11 min 51 sec) 
Heartbeat CPU  0 instructions:  255000002 cycles:  293789531 heartbeat IPC: 0.68776 cumulative IPC: 0.71811 (Simulation time: 0 hr 11 min 53 sec) 
Heartbeat CPU  0 instructions:  256000000 cycles:  300466496 heartbeat IPC: 0.14977 cumulative IPC: 0.70106 (Simulation time: 0 hr 11 min 58 sec) 
Heartbeat CPU  0 instructions:  257000000 cycles:  302180123 heartbeat IPC: 0.58356 cumulative IPC: 0.70016 (Simulation time: 0 hr 12 min 0 sec) 
Heartbeat CPU  0 instructions:  258000001 cycles:  303731134 heartbeat IPC: 0.64474 cumulative IPC: 0.69978 (Simulation time: 0 hr 12 min 3 sec) 
Heartbeat CPU  0 instructions:  259000002 cycles:  305188888 heartbeat IPC: 0.68599 cumulative IPC: 0.69969 (Simulation time: 0 hr 12 min 5 sec) 
Heartbeat CPU  0 instructions:  260000000 cycles:  306644204 heartbeat IPC: 0.68713 cumulative IPC: 0.69961 (Simulation time: 0 hr 12 min 7 sec) 
Heartbeat CPU  0 instructions:  261000000 cycles:  314342341 heartbeat IPC: 0.12990 cumulative IPC: 0.68106 (Simulation time: 0 hr 12 min 12 sec) 
Heartbeat CPU  0 instructions:  262000003 cycles:  316058547 heartbeat IPC: 0.58268 cumulative IPC: 0.68035 (Simulation time: 0 hr 12 min 15 sec) 
Heartbeat CPU  0 instructions:  263000001 cycles:  317621557 heartbeat IPC: 0.63979 cumulative IPC: 0.68008 (Simulation time: 0 hr 12 min 18 sec) 
Heartbeat CPU  0 instructions:  264000000 cycles:  319080215 heartbeat IPC: 0.68556 cumulative IPC: 0.68012 (Simulation time: 0 hr 12 min 20 sec) 
Heartbeat CPU  0 instructions:  265000001 cycles:  320536129 heartbeat IPC: 0.68685 cumulative IPC: 0.68016 (Simulation time: 0 hr 12 min 22 sec) 
Heartbeat CPU  0 instructions:  266000001 cycles:  328022037 heartbeat IPC: 0.13358 cumulative IPC: 0.66380 (Simulation time: 0 hr 12 min 27 sec) 
Heartbeat CPU  0 instructions:  267000003 cycles:  329708784 heartbeat IPC: 0.59286 cumulative IPC: 0.66332 (Simulation time: 0 hr 12 min 30 sec) 
Heartbeat CPU  0 instructions:  268000000 cycles:  331274557 heartbeat IPC: 0.63866 cumulative IPC: 0.66317 (Simulation time: 0 hr 12 min 32 sec) 
Heartbeat CPU  0 instructions:  269000002 cycles:  332730603 heartbeat IPC: 0.68679 cumulative IPC: 0.66330 (Simulation time: 0 hr 12 min 35 sec) 
Heartbeat CPU  0 instructions:  270000003 cycles:  334183972 heartbeat IPC: 0.68806 cumulative IPC: 0.66344 (Simulation time: 0 hr 12 min 37 sec) 
Heartbeat CPU  0 instructions:  271000000 cycles:  341467967 heartbeat IPC: 0.13729 cumulative IPC: 0.64890 (Simulation time: 0 hr 12 min 42 sec) 
Heartbeat CPU  0 instructions:  272000000 cycles:  343160292 heartbeat IPC: 0.59090 cumulative IPC: 0.64853 (Simulation time: 0 hr 12 min 44 sec) 
Heartbeat CPU  0 instructions:  273000000 cycles:  344729219 heartbeat IPC: 0.63738 cumulative IPC: 0.64847 (Simulation time: 0 hr 12 min 47 sec) 
Heartbeat CPU  0 instructions:  274000001 cycles:  346184729 heartbeat IPC: 0.68705 cumulative IPC: 0.64867 (Simulation time: 0 hr 12 min 49 sec) 
Heartbeat CPU  0 instructions:  275000000 cycles:  347638900 heartbeat IPC: 0.68768 cumulative IPC: 0.64888 (Simulation time: 0 hr 12 min 52 sec) 
Heartbeat CPU  0 instructions:  276000000 cycles:  349224627 heartbeat IPC: 0.63063 cumulative IPC: 0.64878 (Simulation time: 0 hr 12 min 54 sec) 
Heartbeat CPU  0 instructions:  277000000 cycles:  350882622 heartbeat IPC: 0.60314 cumulative IPC: 0.64850 (Simulation time: 0 hr 12 min 56 sec) 
Heartbeat CPU  0 instructions:  278000000 cycles:  352450539 heartbeat IPC: 0.63779 cumulative IPC: 0.64844 (Simulation time: 0 hr 12 min 59 sec) 
Heartbeat CPU  0 instructions:  279000000 cycles:  353904833 heartbeat IPC: 0.68762 cumulative IPC: 0.64865 (Simulation time: 0 hr 13 min 1 sec) 
Heartbeat CPU  0 instructions:  280000000 cycles:  355358118 heartbeat IPC: 0.68810 cumulative IPC: 0.64885 (Simulation time: 0 hr 13 min 4 sec) 
Heartbeat CPU  0 instructions:  281000000 cycles:  356811240 heartbeat IPC: 0.68817 cumulative IPC: 0.64906 (Simulation time: 0 hr 13 min 6 sec) 
Heartbeat CPU  0 instructions:  282000000 cycles:  358475242 heartbeat IPC: 0.60096 cumulative IPC: 0.64877 (Simulation time: 0 hr 13 min 8 sec) 
Heartbeat CPU  0 instructions:  283000001 cycles:  360046529 heartbeat IPC: 0.63642 cumulative IPC: 0.64870 (Simulation time: 0 hr 13 min 11 sec) 
Heartbeat CPU  0 instructions:  284000000 cycles:  361500275 heartbeat IPC: 0.68788 cumulative IPC: 0.64890 (Simulation time: 0 hr 13 min 13 sec) 
Heartbeat CPU  0 instructions:  285000000 cycles:  362953281 heartbeat IPC: 0.68823 cumulative IPC: 0.64910 (Simulation time: 0 hr 13 min 15 sec) 
Heartbeat CPU  0 instructions:  286000002 cycles:  364187041 heartbeat IPC: 0.81053 cumulative IPC: 0.64980 (Simulation time: 0 hr 13 min 17 sec) 
Heartbeat CPU  0 instructions:  287000000 cycles:  365858482 heartbeat IPC: 0.59828 cumulative IPC: 0.64950 (Simulation time: 0 hr 13 min 20 sec) 
Heartbeat CPU  0 instructions:  288000000 cycles:  367420938 heartbeat IPC: 0.64002 cumulative IPC: 0.64945 (Simulation time: 0 hr 13 min 22 sec) 
Heartbeat CPU  0 instructions:  289000001 cycles:  368875781 heartbeat IPC: 0.68736 cumulative IPC: 0.64964 (Simulation time: 0 hr 13 min 25 sec) 
Heartbeat CPU  0 instructions:  290000001 cycles:  370329814 heartbeat IPC: 0.68774 cumulative IPC: 0.64983 (Simulation time: 0 hr 13 min 27 sec) 
Heartbeat CPU  0 instructions:  291000001 cycles:  371526397 heartbeat IPC: 0.83571 cumulative IPC: 0.65059 (Simulation time: 0 hr 13 min 29 sec) 
Heartbeat CPU  0 instructions:  292000000 cycles:  373159573 heartbeat IPC: 0.61230 cumulative IPC: 0.65038 (Simulation time: 0 hr 13 min 32 sec) 
Heartbeat CPU  0 instructions:  293000001 cycles:  374874190 heartbeat IPC: 0.58322 cumulative IPC: 0.64999 (Simulation time: 0 hr 13 min 34 sec) 
Heartbeat CPU  0 instructions:  294000003 cycles:  376588523 heartbeat IPC: 0.58332 cumulative IPC: 0.64960 (Simulation time: 0 hr 13 min 37 sec) 
Heartbeat CPU  0 instructions:  295000003 cycles:  378093884 heartbeat IPC: 0.66429 cumulative IPC: 0.64968 (Simulation time: 0 hr 13 min 39 sec) 
Heartbeat CPU  0 instructions:  296000000 cycles:  379519805 heartbeat IPC: 0.70130 cumulative IPC: 0.64992 (Simulation time: 0 hr 13 min 42 sec) 
Heartbeat CPU  0 instructions:  297000001 cycles:  381237667 heartbeat IPC: 0.58212 cumulative IPC: 0.64954 (Simulation time: 0 hr 13 min 44 sec) 
Heartbeat CPU  0 instructions:  298000002 cycles:  382954780 heartbeat IPC: 0.58237 cumulative IPC: 0.64916 (Simulation time: 0 hr 13 min 47 sec) 
Heartbeat CPU  0 instructions:  299000002 cycles:  384538283 heartbeat IPC: 0.63151 cumulative IPC: 0.64907 (Simulation time: 0 hr 13 min 49 sec) 
Heartbeat CPU  0 instructions:  300000000 cycles:  385734604 heartbeat IPC: 0.83589 cumulative IPC: 0.64980 (Simulation time: 0 hr 13 min 51 sec) 
Heartbeat CPU  0 instructions:  301000000 cycles:  387187603 heartbeat IPC: 0.68823 cumulative IPC: 0.64998 (Simulation time: 0 hr 13 min 54 sec) 
Heartbeat CPU  0 instructions:  302000001 cycles:  388640186 heartbeat IPC: 0.68843 cumulative IPC: 0.65016 (Simulation time: 0 hr 13 min 56 sec) 
Heartbeat CPU  0 instructions:  303000000 cycles:  390092998 heartbeat IPC: 0.68832 cumulative IPC: 0.65033 (Simulation time: 0 hr 13 min 58 sec) 
Heartbeat CPU  0 instructions:  304000000 cycles:  391545746 heartbeat IPC: 0.68835 cumulative IPC: 0.65051 (Simulation time: 0 hr 14 min 1 sec) 
Heartbeat CPU  0 instructions:  305000003 cycles:  392787020 heartbeat IPC: 0.80563 cumulative IPC: 0.65112 (Simulation time: 0 hr 14 min 3 sec) 
Heartbeat CPU  0 instructions:  306000001 cycles:  394135326 heartbeat IPC: 0.74167 cumulative IPC: 0.65151 (Simulation time: 0 hr 14 min 5 sec) 
Heartbeat CPU  0 instructions:  307000001 cycles:  395589532 heartbeat IPC: 0.68766 cumulative IPC: 0.65167 (Simulation time: 0 hr 14 min 7 sec) 
Heartbeat CPU  0 instructions:  308000000 cycles:  397043688 heartbeat IPC: 0.68768 cumulative IPC: 0.65184 (Simulation time: 0 hr 14 min 10 sec) 
Heartbeat CPU  0 instructions:  309000003 cycles:  398497971 heartbeat IPC: 0.68763 cumulative IPC: 0.65200 (Simulation time: 0 hr 14 min 12 sec) 
Heartbeat CPU  0 instructions:  310000002 cycles:  399946585 heartbeat IPC: 0.69031 cumulative IPC: 0.65217 (Simulation time: 0 hr 14 min 14 sec) 
Heartbeat CPU  0 instructions:  311000000 cycles:  403696067 heartbeat IPC: 0.26670 cumulative IPC: 0.64773 (Simulation time: 0 hr 14 min 18 sec) 
Heartbeat CPU  0 instructions:  312000000 cycles:  406721744 heartbeat IPC: 0.33050 cumulative IPC: 0.64482 (Simulation time: 0 hr 14 min 22 sec) 
Heartbeat CPU  0 instructions:  313000002 cycles:  409644813 heartbeat IPC: 0.34211 cumulative IPC: 0.64215 (Simulation time: 0 hr 14 min 25 sec) 
Heartbeat CPU  0 instructions:  314000002 cycles:  412546562 heartbeat IPC: 0.34462 cumulative IPC: 0.63957 (Simulation time: 0 hr 14 min 29 sec) 
Heartbeat CPU  0 instructions:  315000001 cycles:  415418765 heartbeat IPC: 0.34816 cumulative IPC: 0.63709 (Simulation time: 0 hr 14 min 32 sec) 
Heartbeat CPU  0 instructions:  316000000 cycles:  418342279 heartbeat IPC: 0.34205 cumulative IPC: 0.63455 (Simulation time: 0 hr 14 min 36 sec) 
Heartbeat CPU  0 instructions:  317000002 cycles:  421221137 heartbeat IPC: 0.34736 cumulative IPC: 0.63214 (Simulation time: 0 hr 14 min 39 sec) 
Heartbeat CPU  0 instructions:  318000001 cycles:  424110817 heartbeat IPC: 0.34606 cumulative IPC: 0.62976 (Simulation time: 0 hr 14 min 43 sec) 
Heartbeat CPU  0 instructions:  319000002 cycles:  426983033 heartbeat IPC: 0.34816 cumulative IPC: 0.62744 (Simulation time: 0 hr 14 min 46 sec) 
Heartbeat CPU  0 instructions:  320000000 cycles:  429913240 heartbeat IPC: 0.34127 cumulative IPC: 0.62506 (Simulation time: 0 hr 14 min 50 sec) 
Heartbeat CPU  0 instructions:  321000001 cycles:  432768677 heartbeat IPC: 0.35021 cumulative IPC: 0.62285 (Simulation time: 0 hr 14 min 53 sec) 
Heartbeat CPU  0 instructions:  322000000 cycles:  435646324 heartbeat IPC: 0.34751 cumulative IPC: 0.62063 (Simulation time: 0 hr 14 min 57 sec) 
Heartbeat CPU  0 instructions:  323000001 cycles:  438630348 heartbeat IPC: 0.33512 cumulative IPC: 0.61827 (Simulation time: 0 hr 15 min 0 sec) 
Heartbeat CPU  0 instructions:  324000000 cycles:  441491210 heartbeat IPC: 0.34954 cumulative IPC: 0.61615 (Simulation time: 0 hr 15 min 4 sec) 
Heartbeat CPU  0 instructions:  325000003 cycles:  444371736 heartbeat IPC: 0.34716 cumulative IPC: 0.61404 (Simulation time: 0 hr 15 min 7 sec) 
Heartbeat CPU  0 instructions:  326000000 cycles:  447227274 heartbeat IPC: 0.35020 cumulative IPC: 0.61200 (Simulation time: 0 hr 15 min 11 sec) 
Heartbeat CPU  0 instructions:  327000003 cycles:  450095411 heartbeat IPC: 0.34866 cumulative IPC: 0.60997 (Simulation time: 0 hr 15 min 14 sec) 
Heartbeat CPU  0 instructions:  328000000 cycles:  452971160 heartbeat IPC: 0.34773 cumulative IPC: 0.60796 (Simulation time: 0 hr 15 min 17 sec) 
Heartbeat CPU  0 instructions:  329000001 cycles:  455834899 heartbeat IPC: 0.34919 cumulative IPC: 0.60600 (Simulation time: 0 hr 15 min 21 sec) 
Heartbeat CPU  0 instructions:  330000000 cycles:  458682767 heartbeat IPC: 0.35114 cumulative IPC: 0.60409 (Simulation time: 0 hr 15 min 24 sec) 
Heartbeat CPU  0 instructions:  331000003 cycles:  461538106 heartbeat IPC: 0.35022 cumulative IPC: 0.60220 (Simulation time: 0 hr 15 min 28 sec) 
Heartbeat CPU  0 instructions:  332000000 cycles:  464373048 heartbeat IPC: 0.35274 cumulative IPC: 0.60037 (Simulation time: 0 hr 15 min 31 sec) 
Heartbeat CPU  0 instructions:  333000000 cycles:  467246780 heartbeat IPC: 0.34798 cumulative IPC: 0.59851 (Simulation time: 0 hr 15 min 35 sec) 
Heartbeat CPU  0 instructions:  334000002 cycles:  470101382 heartbeat IPC: 0.35031 cumulative IPC: 0.59670 (Simulation time: 0 hr 15 min 38 sec) 
Heartbeat CPU  0 instructions:  335000002 cycles:  472648906 heartbeat IPC: 0.39254 cumulative IPC: 0.59538 (Simulation time: 0 hr 15 min 42 sec) 
Heartbeat CPU  0 instructions:  336000000 cycles:  474070979 heartbeat IPC: 0.70320 cumulative IPC: 0.59577 (Simulation time: 0 hr 15 min 44 sec) 
Heartbeat CPU  0 instructions:  337000002 cycles:  475480796 heartbeat IPC: 0.70931 cumulative IPC: 0.59617 (Simulation time: 0 hr 15 min 47 sec) 
Heartbeat CPU  0 instructions:  338000000 cycles:  476900767 heartbeat IPC: 0.70424 cumulative IPC: 0.59656 (Simulation time: 0 hr 15 min 50 sec) 
Heartbeat CPU  0 instructions:  339000000 cycles:  478305507 heartbeat IPC: 0.71188 cumulative IPC: 0.59696 (Simulation time: 0 hr 15 min 53 sec) 
Heartbeat CPU  0 instructions:  340000000 cycles:  479693223 heartbeat IPC: 0.72061 cumulative IPC: 0.59739 (Simulation time: 0 hr 15 min 56 sec) 
Heartbeat CPU  0 instructions:  341000002 cycles:  481079649 heartbeat IPC: 0.72128 cumulative IPC: 0.59782 (Simulation time: 0 hr 15 min 59 sec) 
Heartbeat CPU  0 instructions:  342000001 cycles:  482477524 heartbeat IPC: 0.71537 cumulative IPC: 0.59822 (Simulation time: 0 hr 16 min 2 sec) 
Heartbeat CPU  0 instructions:  343000003 cycles:  483885888 heartbeat IPC: 0.71005 cumulative IPC: 0.59861 (Simulation time: 0 hr 16 min 5 sec) 
Heartbeat CPU  0 instructions:  344000000 cycles:  485314856 heartbeat IPC: 0.69980 cumulative IPC: 0.59896 (Simulation time: 0 hr 16 min 7 sec) 
Heartbeat CPU  0 instructions:  345000001 cycles:  486738851 heartbeat IPC: 0.70225 cumulative IPC: 0.59932 (Simulation time: 0 hr 16 min 10 sec) 
Heartbeat CPU  0 instructions:  346000002 cycles:  488189324 heartbeat IPC: 0.68943 cumulative IPC: 0.59964 (Simulation time: 0 hr 16 min 13 sec) 
Heartbeat CPU  0 instructions:  347000000 cycles:  489870896 heartbeat IPC: 0.59468 cumulative IPC: 0.59962 (Simulation time: 0 hr 16 min 16 sec) 
Heartbeat CPU  0 instructions:  348000000 cycles:  491311967 heartbeat IPC: 0.69393 cumulative IPC: 0.59995 (Simulation time: 0 hr 16 min 19 sec) 
Heartbeat CPU  0 instructions:  349000001 cycles:  492724242 heartbeat IPC: 0.70808 cumulative IPC: 0.60032 (Simulation time: 0 hr 16 min 22 sec) 
Heartbeat CPU  0 instructions:  350000001 cycles:  494160574 heartbeat IPC: 0.69622 cumulative IPC: 0.60065 (Simulation time: 0 hr 16 min 25 sec) 
Heartbeat CPU  0 instructions:  351000002 cycles:  495621960 heartbeat IPC: 0.68428 cumulative IPC: 0.60094 (Simulation time: 0 hr 16 min 28 sec) 
Heartbeat CPU  0 instructions:  352000000 cycles:  497113527 heartbeat IPC: 0.67043 cumulative IPC: 0.60119 (Simulation time: 0 hr 16 min 31 sec) 
Heartbeat CPU  0 instructions:  353000001 cycles:  498594343 heartbeat IPC: 0.67530 cumulative IPC: 0.60145 (Simulation time: 0 hr 16 min 34 sec) 
Heartbeat CPU  0 instructions:  354000000 cycles:  500065066 heartbeat IPC: 0.67994 cumulative IPC: 0.60173 (Simulation time: 0 hr 16 min 37 sec) 
Heartbeat CPU  0 instructions:  355000003 cycles:  501515258 heartbeat IPC: 0.68957 cumulative IPC: 0.60203 (Simulation time: 0 hr 16 min 39 sec) 
Heartbeat CPU  0 instructions:  356000000 cycles:  502977204 heartbeat IPC: 0.68402 cumulative IPC: 0.60231 (Simulation time: 0 hr 16 min 42 sec) 
Heartbeat CPU  0 instructions:  357000001 cycles:  504454018 heartbeat IPC: 0.67713 cumulative IPC: 0.60257 (Simulation time: 0 hr 16 min 45 sec) 
Heartbeat CPU  0 instructions:  358000003 cycles:  505915892 heartbeat IPC: 0.68405 cumulative IPC: 0.60285 (Simulation time: 0 hr 16 min 48 sec) 
Heartbeat CPU  0 instructions:  359000002 cycles:  507350460 heartbeat IPC: 0.69707 cumulative IPC: 0.60316 (Simulation time: 0 hr 16 min 51 sec) 
Heartbeat CPU  0 instructions:  360000000 cycles:  508760231 heartbeat IPC: 0.70933 cumulative IPC: 0.60351 (Simulation time: 0 hr 16 min 54 sec) 
Heartbeat CPU  0 instructions:  361000000 cycles:  509999635 heartbeat IPC: 0.80684 cumulative IPC: 0.60409 (Simulation time: 0 hr 16 min 57 sec) 
Heartbeat CPU  0 instructions:  362000002 cycles:  511250112 heartbeat IPC: 0.79970 cumulative IPC: 0.60466 (Simulation time: 0 hr 17 min 0 sec) 
Heartbeat CPU  0 instructions:  363000002 cycles:  512496180 heartbeat IPC: 0.80252 cumulative IPC: 0.60522 (Simulation time: 0 hr 17 min 2 sec) 
Heartbeat CPU  0 instructions:  364000000 cycles:  513739436 heartbeat IPC: 0.80434 cumulative IPC: 0.60579 (Simulation time: 0 hr 17 min 5 sec) 
Heartbeat CPU  0 instructions:  365000002 cycles:  514983679 heartbeat IPC: 0.80370 cumulative IPC: 0.60635 (Simulation time: 0 hr 17 min 8 sec) 
Heartbeat CPU  0 instructions:  366000002 cycles:  516222901 heartbeat IPC: 0.80696 cumulative IPC: 0.60692 (Simulation time: 0 hr 17 min 11 sec) 
Heartbeat CPU  0 instructions:  367000001 cycles:  517461896 heartbeat IPC: 0.80710 cumulative IPC: 0.60749 (Simulation time: 0 hr 17 min 14 sec) 
Heartbeat CPU  0 instructions:  368000000 cycles:  518698348 heartbeat IPC: 0.80876 cumulative IPC: 0.60805 (Simulation time: 0 hr 17 min 16 sec) 
Heartbeat CPU  0 instructions:  369000000 cycles:  519932792 heartbeat IPC: 0.81008 cumulative IPC: 0.60861 (Simulation time: 0 hr 17 min 19 sec) 
Heartbeat CPU  0 instructions:  370000003 cycles:  521173411 heartbeat IPC: 0.80605 cumulative IPC: 0.60917 (Simulation time: 0 hr 17 min 22 sec) 
Heartbeat CPU  0 instructions:  371000001 cycles:  522413383 heartbeat IPC: 0.80647 cumulative IPC: 0.60972 (Simulation time: 0 hr 17 min 25 sec) 
Heartbeat CPU  0 instructions:  372000000 cycles:  523659639 heartbeat IPC: 0.80240 cumulative IPC: 0.61026 (Simulation time: 0 hr 17 min 27 sec) 
Heartbeat CPU  0 instructions:  373000000 cycles:  524900671 heartbeat IPC: 0.80578 cumulative IPC: 0.61080 (Simulation time: 0 hr 17 min 30 sec) 
Heartbeat CPU  0 instructions:  374000000 cycles:  526128319 heartbeat IPC: 0.81457 cumulative IPC: 0.61136 (Simulation time: 0 hr 17 min 33 sec) 
Heartbeat CPU  0 instructions:  375000001 cycles:  527560860 heartbeat IPC: 0.69806 cumulative IPC: 0.61163 (Simulation time: 0 hr 17 min 36 sec) 
Heartbeat CPU  0 instructions:  376000000 cycles:  528802029 heartbeat IPC: 0.80569 cumulative IPC: 0.61217 (Simulation time: 0 hr 17 min 39 sec) 
Heartbeat CPU  0 instructions:  377000001 cycles:  530039273 heartbeat IPC: 0.80825 cumulative IPC: 0.61270 (Simulation time: 0 hr 17 min 41 sec) 
Heartbeat CPU  0 instructions:  378000003 cycles:  531270344 heartbeat IPC: 0.81230 cumulative IPC: 0.61325 (Simulation time: 0 hr 17 min 44 sec) 
Heartbeat CPU  0 instructions:  379000000 cycles:  532506917 heartbeat IPC: 0.80868 cumulative IPC: 0.61378 (Simulation time: 0 hr 17 min 47 sec) 
Heartbeat CPU  0 instructions:  380000000 cycles:  533725574 heartbeat IPC: 0.82058 cumulative IPC: 0.61433 (Simulation time: 0 hr 17 min 50 sec) 
Heartbeat CPU  0 instructions:  381000003 cycles:  534968373 heartbeat IPC: 0.80464 cumulative IPC: 0.61485 (Simulation time: 0 hr 17 min 52 sec) 
Heartbeat CPU  0 instructions:  382000003 cycles:  536180425 heartbeat IPC: 0.82505 cumulative IPC: 0.61540 (Simulation time: 0 hr 17 min 55 sec) 
Heartbeat CPU  0 instructions:  383000003 cycles:  537360767 heartbeat IPC: 0.84721 cumulative IPC: 0.61600 (Simulation time: 0 hr 17 min 58 sec) 
Heartbeat CPU  0 instructions:  384000000 cycles:  538542769 heartbeat IPC: 0.84602 cumulative IPC: 0.61659 (Simulation time: 0 hr 18 min 1 sec) 
Heartbeat CPU  0 instructions:  385000003 cycles:  539721327 heartbeat IPC: 0.84850 cumulative IPC: 0.61718 (Simulation time: 0 hr 18 min 4 sec) 
Heartbeat CPU  0 instructions:  386000001 cycles:  540917333 heartbeat IPC: 0.83611 cumulative IPC: 0.61775 (Simulation time: 0 hr 18 min 6 sec) 
Heartbeat CPU  0 instructions:  387000003 cycles:  542140236 heartbeat IPC: 0.81773 cumulative IPC: 0.61827 (Simulation time: 0 hr 18 min 9 sec) 
Heartbeat CPU  0 instructions:  388000000 cycles:  543365227 heartbeat IPC: 0.81633 cumulative IPC: 0.61880 (Simulation time: 0 hr 18 min 12 sec) 
Heartbeat CPU  0 instructions:  389000003 cycles:  544587268 heartbeat IPC: 0.81831 cumulative IPC: 0.61932 (Simulation time: 0 hr 18 min 15 sec) 
Heartbeat CPU  0 instructions:  390000000 cycles:  546418887 heartbeat IPC: 0.54596 cumulative IPC: 0.61903 (Simulation time: 0 hr 18 min 18 sec) 
Heartbeat CPU  0 instructions:  391000003 cycles:  549310444 heartbeat IPC: 0.34584 cumulative IPC: 0.61736 (Simulation time: 0 hr 18 min 21 sec) 
Heartbeat CPU  0 instructions:  392000000 cycles:  552200605 heartbeat IPC: 0.34600 cumulative IPC: 0.61570 (Simulation time: 0 hr 18 min 25 sec) 
Heartbeat CPU  0 instructions:  393000003 cycles:  555055422 heartbeat IPC: 0.35029 cumulative IPC: 0.61411 (Simulation time: 0 hr 18 min 28 sec) 
Heartbeat CPU  0 instructions:  394000002 cycles:  557959447 heartbeat IPC: 0.34435 cumulative IPC: 0.61248 (Simulation time: 0 hr 18 min 32 sec) 
Heartbeat CPU  0 instructions:  395000002 cycles:  560829565 heartbeat IPC: 0.34842 cumulative IPC: 0.61091 (Simulation time: 0 hr 18 min 35 sec) 
Heartbeat CPU  0 instructions:  396000000 cycles:  563718047 heartbeat IPC: 0.34620 cumulative IPC: 0.60934 (Simulation time: 0 hr 18 min 39 sec) 
Heartbeat CPU  0 instructions:  397000002 cycles:  566584135 heartbeat IPC: 0.34891 cumulative IPC: 0.60781 (Simulation time: 0 hr 18 min 42 sec) 
Heartbeat CPU  0 instructions:  398000001 cycles:  569440659 heartbeat IPC: 0.35008 cumulative IPC: 0.60631 (Simulation time: 0 hr 18 min 46 sec) 
Heartbeat CPU  0 instructions:  399000002 cycles:  572311761 heartbeat IPC: 0.34830 cumulative IPC: 0.60481 (Simulation time: 0 hr 18 min 49 sec) 
Heartbeat CPU  0 instructions:  400000000 cycles:  575180529 heartbeat IPC: 0.34858 cumulative IPC: 0.60334 (Simulation time: 0 hr 18 min 52 sec) 
Heartbeat CPU  0 instructions:  401000001 cycles:  578074410 heartbeat IPC: 0.34556 cumulative IPC: 0.60184 (Simulation time: 0 hr 18 min 56 sec) 
Heartbeat CPU  0 instructions:  402000000 cycles:  581063792 heartbeat IPC: 0.33452 cumulative IPC: 0.60026 (Simulation time: 0 hr 18 min 59 sec) 
Heartbeat CPU  0 instructions:  403000000 cycles:  583905435 heartbeat IPC: 0.35191 cumulative IPC: 0.59886 (Simulation time: 0 hr 19 min 3 sec) 
Heartbeat CPU  0 instructions:  404000000 cycles:  586752609 heartbeat IPC: 0.35123 cumulative IPC: 0.59748 (Simulation time: 0 hr 19 min 6 sec) 
Heartbeat CPU  0 instructions:  405000000 cycles:  589602704 heartbeat IPC: 0.35087 cumulative IPC: 0.59610 (Simulation time: 0 hr 19 min 10 sec) 
Heartbeat CPU  0 instructions:  406000000 cycles:  592413302 heartbeat IPC: 0.35580 cumulative IPC: 0.59479 (Simulation time: 0 hr 19 min 13 sec) 
Heartbeat CPU  0 instructions:  407000002 cycles:  595260674 heartbeat IPC: 0.35120 cumulative IPC: 0.59345 (Simulation time: 0 hr 19 min 17 sec) 
Heartbeat CPU  0 instructions:  408000000 cycles:  598116774 heartbeat IPC: 0.35013 cumulative IPC: 0.59211 (Simulation time: 0 hr 19 min 20 sec) 
Heartbeat CPU  0 instructions:  409000002 cycles:  600948539 heartbeat IPC: 0.35314 cumulative IPC: 0.59082 (Simulation time: 0 hr 19 min 24 sec) 
Heartbeat CPU  0 instructions:  410000003 cycles:  603780930 heartbeat IPC: 0.35306 cumulative IPC: 0.58954 (Simulation time: 0 hr 19 min 27 sec) 
Heartbeat CPU  0 instructions:  411000001 cycles:  606615756 heartbeat IPC: 0.35275 cumulative IPC: 0.58827 (Simulation time: 0 hr 19 min 30 sec) 
Heartbeat CPU  0 instructions:  412000000 cycles:  609417699 heartbeat IPC: 0.35689 cumulative IPC: 0.58705 (Simulation time: 0 hr 19 min 34 sec) 
Heartbeat CPU  0 instructions:  413000002 cycles:  612257230 heartbeat IPC: 0.35217 cumulative IPC: 0.58580 (Simulation time: 0 hr 19 min 37 sec) 
Heartbeat CPU  0 instructions:  414000001 cycles:  615066843 heartbeat IPC: 0.35592 cumulative IPC: 0.58460 (Simulation time: 0 hr 19 min 41 sec) 
Heartbeat CPU  0 instructions:  415000000 cycles:  616386986 heartbeat IPC: 0.75749 cumulative IPC: 0.58502 (Simulation time: 0 hr 19 min 44 sec) 
Heartbeat CPU  0 instructions:  416000000 cycles:  617670538 heartbeat IPC: 0.77909 cumulative IPC: 0.58548 (Simulation time: 0 hr 19 min 46 sec) 
Heartbeat CPU  0 instructions:  417000003 cycles:  618952678 heartbeat IPC: 0.77995 cumulative IPC: 0.58594 (Simulation time: 0 hr 19 min 49 sec) 
Heartbeat CPU  0 instructions:  418000001 cycles:  620251988 heartbeat IPC: 0.76964 cumulative IPC: 0.58638 (Simulation time: 0 hr 19 min 52 sec) 
Heartbeat CPU  0 instructions:  419000002 cycles:  621556050 heartbeat IPC: 0.76684 cumulative IPC: 0.58682 (Simulation time: 0 hr 19 min 55 sec) 
Heartbeat CPU  0 instructions:  420000000 cycles:  622867206 heartbeat IPC: 0.76268 cumulative IPC: 0.58724 (Simulation time: 0 hr 19 min 58 sec) 
Heartbeat CPU  0 instructions:  421000000 cycles:  624170963 heartbeat IPC: 0.76701 cumulative IPC: 0.58767 (Simulation time: 0 hr 20 min 1 sec) 
Heartbeat CPU  0 instructions:  422000001 cycles:  625477410 heartbeat IPC: 0.76544 cumulative IPC: 0.58809 (Simulation time: 0 hr 20 min 3 sec) 
Heartbeat CPU  0 instructions:  423000003 cycles:  626779733 heartbeat IPC: 0.76786 cumulative IPC: 0.58852 (Simulation time: 0 hr 20 min 6 sec) 
Heartbeat CPU  0 instructions:  424000000 cycles:  628069819 heartbeat IPC: 0.77514 cumulative IPC: 0.58896 (Simulation time: 0 hr 20 min 9 sec) 
Heartbeat CPU  0 instructions:  425000003 cycles:  629347719 heartbeat IPC: 0.78254 cumulative IPC: 0.58941 (Simulation time: 0 hr 20 min 12 sec) 
Heartbeat CPU  0 instructions:  426000002 cycles:  630632402 heartbeat IPC: 0.77840 cumulative IPC: 0.58985 (Simulation time: 0 hr 20 min 15 sec) 
Heartbeat CPU  0 instructions:  427000003 cycles:  632230421 heartbeat IPC: 0.62578 cumulative IPC: 0.58995 (Simulation time: 0 hr 20 min 18 sec) 
Heartbeat CPU  0 instructions:  428000000 cycles:  633556262 heartbeat IPC: 0.75424 cumulative IPC: 0.59034 (Simulation time: 0 hr 20 min 21 sec) 
Heartbeat CPU  0 instructions:  429000001 cycles:  634871877 heartbeat IPC: 0.76010 cumulative IPC: 0.59074 (Simulation time: 0 hr 20 min 23 sec) 
Heartbeat CPU  0 instructions:  430000003 cycles:  636194324 heartbeat IPC: 0.75618 cumulative IPC: 0.59113 (Simulation time: 0 hr 20 min 26 sec) 
Heartbeat CPU  0 instructions:  431000001 cycles:  637508123 heartbeat IPC: 0.76115 cumulative IPC: 0.59153 (Simulation time: 0 hr 20 min 29 sec) 
Heartbeat CPU  0 instructions:  432000000 cycles:  638821958 heartbeat IPC: 0.76113 cumulative IPC: 0.59193 (Simulation time: 0 hr 20 min 32 sec) 
Heartbeat CPU  0 instructions:  433000001 cycles:  640130450 heartbeat IPC: 0.76424 cumulative IPC: 0.59233 (Simulation time: 0 hr 20 min 35 sec) 
Heartbeat CPU  0 instructions:  434000001 cycles:  641443711 heartbeat IPC: 0.76146 cumulative IPC: 0.59273 (Simulation time: 0 hr 20 min 38 sec) 
Heartbeat CPU  0 instructions:  435000000 cycles:  642767863 heartbeat IPC: 0.75520 cumulative IPC: 0.59311 (Simulation time: 0 hr 20 min 41 sec) 
Heartbeat CPU  0 instructions:  436000000 cycles:  644094669 heartbeat IPC: 0.75369 cumulative IPC: 0.59348 (Simulation time: 0 hr 20 min 44 sec) 
Heartbeat CPU  0 instructions:  437000000 cycles:  645407756 heartbeat IPC: 0.76156 cumulative IPC: 0.59387 (Simulation time: 0 hr 20 min 46 sec) 
Heartbeat CPU  0 instructions:  438000000 cycles:  646713090 heartbeat IPC: 0.76609 cumulative IPC: 0.59427 (Simulation time: 0 hr 20 min 49 sec) 
Heartbeat CPU  0 instructions:  439000000 cycles:  648180416 heartbeat IPC: 0.68151 cumulative IPC: 0.59449 (Simulation time: 0 hr 20 min 52 sec) 
Heartbeat CPU  0 instructions:  440000000 cycles:  649439863 heartbeat IPC: 0.79400 cumulative IPC: 0.59493 (Simulation time: 0 hr 20 min 55 sec) 
Heartbeat CPU  0 instructions:  441000001 cycles:  650697672 heartbeat IPC: 0.79503 cumulative IPC: 0.59537 (Simulation time: 0 hr 20 min 58 sec) 
Heartbeat CPU  0 instructions:  442000001 cycles:  651947011 heartbeat IPC: 0.80042 cumulative IPC: 0.59582 (Simulation time: 0 hr 21 min 1 sec) 
Heartbeat CPU  0 instructions:  443000000 cycles:  653197641 heartbeat IPC: 0.79960 cumulative IPC: 0.59626 (Simulation time: 0 hr 21 min 3 sec) 
Heartbeat CPU  0 instructions:  444000000 cycles:  654445051 heartbeat IPC: 0.80166 cumulative IPC: 0.59670 (Simulation time: 0 hr 21 min 6 sec) 
Heartbeat CPU  0 instructions:  445000000 cycles:  655697925 heartbeat IPC: 0.79816 cumulative IPC: 0.59714 (Simulation time: 0 hr 21 min 9 sec) 
Heartbeat CPU  0 instructions:  446000002 cycles:  656948368 heartbeat IPC: 0.79972 cumulative IPC: 0.59758 (Simulation time: 0 hr 21 min 12 sec) 
Heartbeat CPU  0 instructions:  447000000 cycles:  658201080 heartbeat IPC: 0.79827 cumulative IPC: 0.59801 (Simulation time: 0 hr 21 min 15 sec) 
Heartbeat CPU  0 instructions:  448000000 cycles:  659449142 heartbeat IPC: 0.80124 cumulative IPC: 0.59845 (Simulation time: 0 hr 21 min 17 sec) 
Heartbeat CPU  0 instructions:  449000003 cycles:  660701468 heartbeat IPC: 0.79852 cumulative IPC: 0.59888 (Simulation time: 0 hr 21 min 20 sec) 
Heartbeat CPU  0 instructions:  450000003 cycles:  661950948 heartbeat IPC: 0.80033 cumulative IPC: 0.59931 (Simulation time: 0 hr 21 min 23 sec) 
Heartbeat CPU  0 instructions:  451000003 cycles:  663191679 heartbeat IPC: 0.80598 cumulative IPC: 0.59975 (Simulation time: 0 hr 21 min 26 sec) 
Heartbeat CPU  0 instructions:  452000000 cycles:  664428744 heartbeat IPC: 0.80836 cumulative IPC: 0.60019 (Simulation time: 0 hr 21 min 28 sec) 
Heartbeat CPU  0 instructions:  453000003 cycles:  665666552 heartbeat IPC: 0.80788 cumulative IPC: 0.60063 (Simulation time: 0 hr 21 min 31 sec) 
Heartbeat CPU  0 instructions:  454000001 cycles:  667121656 heartbeat IPC: 0.68723 cumulative IPC: 0.60084 (Simulation time: 0 hr 21 min 34 sec) 
Heartbeat CPU  0 instructions:  455000003 cycles:  668384512 heartbeat IPC: 0.79186 cumulative IPC: 0.60125 (Simulation time: 0 hr 21 min 37 sec) 
Heartbeat CPU  0 instructions:  456000000 cycles:  669632903 heartbeat IPC: 0.80103 cumulative IPC: 0.60167 (Simulation time: 0 hr 21 min 40 sec) 
Heartbeat CPU  0 instructions:  457000001 cycles:  670888229 heartbeat IPC: 0.79661 cumulative IPC: 0.60208 (Simulation time: 0 hr 21 min 42 sec) 
Heartbeat CPU  0 instructions:  458000003 cycles:  672135374 heartbeat IPC: 0.80183 cumulative IPC: 0.60250 (Simulation time: 0 hr 21 min 45 sec) 
Heartbeat CPU  0 instructions:  459000001 cycles:  673384141 heartbeat IPC: 0.80079 cumulative IPC: 0.60292 (Simulation time: 0 hr 21 min 48 sec) 
Heartbeat CPU  0 instructions:  460000000 cycles:  674596036 heartbeat IPC: 0.82515 cumulative IPC: 0.60337 (Simulation time: 0 hr 21 min 51 sec) 
Heartbeat CPU  0 instructions:  461000003 cycles:  675788052 heartbeat IPC: 0.83892 cumulative IPC: 0.60384 (Simulation time: 0 hr 21 min 53 sec) 
Heartbeat CPU  0 instructions:  462000001 cycles:  677017618 heartbeat IPC: 0.81329 cumulative IPC: 0.60427 (Simulation time: 0 hr 21 min 56 sec) 
Heartbeat CPU  0 instructions:  463000000 cycles:  678271871 heartbeat IPC: 0.79729 cumulative IPC: 0.60467 (Simulation time: 0 hr 21 min 59 sec) 
Heartbeat CPU  0 instructions:  464000000 cycles:  679525245 heartbeat IPC: 0.79785 cumulative IPC: 0.60507 (Simulation time: 0 hr 22 min 2 sec) 
Heartbeat CPU  0 instructions:  465000001 cycles:  680766179 heartbeat IPC: 0.80585 cumulative IPC: 0.60549 (Simulation time: 0 hr 22 min 5 sec) 
Heartbeat CPU  0 instructions:  466000003 cycles:  682009064 heartbeat IPC: 0.80458 cumulative IPC: 0.60590 (Simulation time: 0 hr 22 min 7 sec) 
Heartbeat CPU  0 instructions:  467000003 cycles:  683254000 heartbeat IPC: 0.80325 cumulative IPC: 0.60630 (Simulation time: 0 hr 22 min 10 sec) 
Heartbeat CPU  0 instructions:  468000000 cycles:  684499734 heartbeat IPC: 0.80274 cumulative IPC: 0.60671 (Simulation time: 0 hr 22 min 13 sec) 
Heartbeat CPU  0 instructions:  469000002 cycles:  685959246 heartbeat IPC: 0.68516 cumulative IPC: 0.60689 (Simulation time: 0 hr 22 min 16 sec) 
Heartbeat CPU  0 instructions:  470000000 cycles:  688715670 heartbeat IPC: 0.36279 cumulative IPC: 0.60579 (Simulation time: 0 hr 22 min 19 sec) 
Heartbeat CPU  0 instructions:  471000001 cycles:  691454565 heartbeat IPC: 0.36511 cumulative IPC: 0.60472 (Simulation time: 0 hr 22 min 23 sec) 
Heartbeat CPU  0 instructions:  472000000 cycles:  694183190 heartbeat IPC: 0.36648 cumulative IPC: 0.60366 (Simulation time: 0 hr 22 min 26 sec) 
Heartbeat CPU  0 instructions:  473000001 cycles:  696909773 heartbeat IPC: 0.36676 cumulative IPC: 0.60262 (Simulation time: 0 hr 22 min 29 sec) 
Heartbeat CPU  0 instructions:  474000003 cycles:  699646419 heartbeat IPC: 0.36541 cumulative IPC: 0.60158 (Simulation time: 0 hr 22 min 33 sec) 
Heartbeat CPU  0 instructions:  475000002 cycles:  702382283 heartbeat IPC: 0.36551 cumulative IPC: 0.60054 (Simulation time: 0 hr 22 min 36 sec) 
Heartbeat CPU  0 instructions:  476000000 cycles:  705112566 heartbeat IPC: 0.36626 cumulative IPC: 0.59952 (Simulation time: 0 hr 22 min 40 sec) 
Heartbeat CPU  0 instructions:  477000003 cycles:  707843526 heartbeat IPC: 0.36617 cumulative IPC: 0.59851 (Simulation time: 0 hr 22 min 43 sec) 
Heartbeat CPU  0 instructions:  478000000 cycles:  710569973 heartbeat IPC: 0.36678 cumulative IPC: 0.59751 (Simulation time: 0 hr 22 min 47 sec) 
Heartbeat CPU  0 instructions:  479000001 cycles:  713289004 heartbeat IPC: 0.36778 cumulative IPC: 0.59653 (Simulation time: 0 hr 22 min 50 sec) 
Heartbeat CPU  0 instructions:  480000000 cycles:  716013549 heartbeat IPC: 0.36703 cumulative IPC: 0.59555 (Simulation time: 0 hr 22 min 53 sec) 
Heartbeat CPU  0 instructions:  481000001 cycles:  718805431 heartbeat IPC: 0.35818 cumulative IPC: 0.59451 (Simulation time: 0 hr 22 min 57 sec) 
Heartbeat CPU  0 instructions:  482000000 cycles:  721600737 heartbeat IPC: 0.35774 cumulative IPC: 0.59349 (Simulation time: 0 hr 23 min 0 sec) 
Heartbeat CPU  0 instructions:  483000001 cycles:  724357622 heartbeat IPC: 0.36273 cumulative IPC: 0.59250 (Simulation time: 0 hr 23 min 4 sec) 
Heartbeat CPU  0 instructions:  484000000 cycles:  727125167 heartbeat IPC: 0.36133 cumulative IPC: 0.59152 (Simulation time: 0 hr 23 min 7 sec) 
Heartbeat CPU  0 instructions:  485000001 cycles:  729888159 heartbeat IPC: 0.36193 cumulative IPC: 0.59054 (Simulation time: 0 hr 23 min 10 sec) 
Heartbeat CPU  0 instructions:  486000002 cycles:  732650911 heartbeat IPC: 0.36196 cumulative IPC: 0.58958 (Simulation time: 0 hr 23 min 14 sec) 
Heartbeat CPU  0 instructions:  487000003 cycles:  735407896 heartbeat IPC: 0.36272 cumulative IPC: 0.58863 (Simulation time: 0 hr 23 min 17 sec) 
Heartbeat CPU  0 instructions:  488000000 cycles:  738165833 heartbeat IPC: 0.36259 cumulative IPC: 0.58768 (Simulation time: 0 hr 23 min 20 sec) 
Heartbeat CPU  0 instructions:  489000002 cycles:  740928015 heartbeat IPC: 0.36203 cumulative IPC: 0.58674 (Simulation time: 0 hr 23 min 24 sec) 
Heartbeat CPU  0 instructions:  490000003 cycles:  743691780 heartbeat IPC: 0.36183 cumulative IPC: 0.58581 (Simulation time: 0 hr 23 min 27 sec) 
Heartbeat CPU  0 instructions:  491000000 cycles:  746447962 heartbeat IPC: 0.36282 cumulative IPC: 0.58489 (Simulation time: 0 hr 23 min 31 sec) 
Heartbeat CPU  0 instructions:  492000000 cycles:  749208866 heartbeat IPC: 0.36220 cumulative IPC: 0.58397 (Simulation time: 0 hr 23 min 34 sec) 
Heartbeat CPU  0 instructions:  493000002 cycles:  751959237 heartbeat IPC: 0.36359 cumulative IPC: 0.58307 (Simulation time: 0 hr 23 min 37 sec) 
Heartbeat CPU  0 instructions:  494000002 cycles:  753801648 heartbeat IPC: 0.54277 cumulative IPC: 0.58296 (Simulation time: 0 hr 23 min 40 sec) 
Heartbeat CPU  0 instructions:  495000003 cycles:  755378504 heartbeat IPC: 0.63417 cumulative IPC: 0.58308 (Simulation time: 0 hr 23 min 43 sec) 
Heartbeat CPU  0 instructions:  496000000 cycles:  756960115 heartbeat IPC: 0.63226 cumulative IPC: 0.58320 (Simulation time: 0 hr 23 min 46 sec) 
Heartbeat CPU  0 instructions:  497000002 cycles:  758527737 heartbeat IPC: 0.63791 cumulative IPC: 0.58332 (Simulation time: 0 hr 23 min 49 sec) 
Heartbeat CPU  0 instructions:  498000002 cycles:  760094644 heartbeat IPC: 0.63820 cumulative IPC: 0.58345 (Simulation time: 0 hr 23 min 52 sec) 
Heartbeat CPU  0 instructions:  499000002 cycles:  761653283 heartbeat IPC: 0.64159 cumulative IPC: 0.58358 (Simulation time: 0 hr 23 min 55 sec) 
Heartbeat CPU  0 instructions:  500000000 cycles:  763187830 heartbeat IPC: 0.65166 cumulative IPC: 0.58374 (Simulation time: 0 hr 23 min 58 sec) 
Heartbeat CPU  0 instructions:  501000000 cycles:  764705233 heartbeat IPC: 0.65902 cumulative IPC: 0.58390 (Simulation time: 0 hr 24 min 1 sec) 
Heartbeat CPU  0 instructions:  502000001 cycles:  766265910 heartbeat IPC: 0.64075 cumulative IPC: 0.58403 (Simulation time: 0 hr 24 min 4 sec) 
Heartbeat CPU  0 instructions:  503000001 cycles:  767829183 heartbeat IPC: 0.63968 cumulative IPC: 0.58416 (Simulation time: 0 hr 24 min 6 sec) 
Heartbeat CPU  0 instructions:  504000000 cycles:  769368442 heartbeat IPC: 0.64966 cumulative IPC: 0.58430 (Simulation time: 0 hr 24 min 9 sec) 
Heartbeat CPU  0 instructions:  505000000 cycles:  770943446 heartbeat IPC: 0.63492 cumulative IPC: 0.58442 (Simulation time: 0 hr 24 min 12 sec) 
Heartbeat CPU  0 instructions:  506000001 cycles:  772734297 heartbeat IPC: 0.55839 cumulative IPC: 0.58435 (Simulation time: 0 hr 24 min 15 sec) 
Heartbeat CPU  0 instructions:  507000002 cycles:  774281024 heartbeat IPC: 0.64653 cumulative IPC: 0.58449 (Simulation time: 0 hr 24 min 18 sec) 
Heartbeat CPU  0 instructions:  508000000 cycles:  775856587 heartbeat IPC: 0.63469 cumulative IPC: 0.58460 (Simulation time: 0 hr 24 min 21 sec) 
Heartbeat CPU  0 instructions:  509000000 cycles:  777445320 heartbeat IPC: 0.62943 cumulative IPC: 0.58470 (Simulation time: 0 hr 24 min 24 sec) 
Heartbeat CPU  0 instructions:  510000001 cycles:  779044045 heartbeat IPC: 0.62550 cumulative IPC: 0.58480 (Simulation time: 0 hr 24 min 27 sec) 
Heartbeat CPU  0 instructions:  511000002 cycles:  780626399 heartbeat IPC: 0.63197 cumulative IPC: 0.58490 (Simulation time: 0 hr 24 min 30 sec) 
Heartbeat CPU  0 instructions:  512000000 cycles:  782217332 heartbeat IPC: 0.62856 cumulative IPC: 0.58500 (Simulation time: 0 hr 24 min 33 sec) 
Heartbeat CPU  0 instructions:  513000002 cycles:  783784499 heartbeat IPC: 0.63810 cumulative IPC: 0.58512 (Simulation time: 0 hr 24 min 36 sec) 
Heartbeat CPU  0 instructions:  514000001 cycles:  785324090 heartbeat IPC: 0.64952 cumulative IPC: 0.58526 (Simulation time: 0 hr 24 min 39 sec) 
Heartbeat CPU  0 instructions:  515000000 cycles:  786877499 heartbeat IPC: 0.64374 cumulative IPC: 0.58539 (Simulation time: 0 hr 24 min 42 sec) 
Heartbeat CPU  0 instructions:  516000000 cycles:  788436412 heartbeat IPC: 0.64147 cumulative IPC: 0.58551 (Simulation time: 0 hr 24 min 45 sec) 
Heartbeat CPU  0 instructions:  517000001 cycles:  789988881 heartbeat IPC: 0.64414 cumulative IPC: 0.58564 (Simulation time: 0 hr 24 min 47 sec) 
Heartbeat CPU  0 instructions:  518000001 cycles:  791573135 heartbeat IPC: 0.63121 cumulative IPC: 0.58574 (Simulation time: 0 hr 24 min 50 sec) 
Heartbeat CPU  0 instructions:  519000000 cycles:  792947267 heartbeat IPC: 0.72773 cumulative IPC: 0.58601 (Simulation time: 0 hr 24 min 53 sec) 
Heartbeat CPU  0 instructions:  520000000 cycles:  794313211 heartbeat IPC: 0.73209 cumulative IPC: 0.58629 (Simulation time: 0 hr 24 min 56 sec) 
Heartbeat CPU  0 instructions:  521000000 cycles:  795681035 heartbeat IPC: 0.73109 cumulative IPC: 0.58657 (Simulation time: 0 hr 24 min 59 sec) 
Heartbeat CPU  0 instructions:  522000002 cycles:  797042981 heartbeat IPC: 0.73424 cumulative IPC: 0.58685 (Simulation time: 0 hr 25 min 2 sec) 
Heartbeat CPU  0 instructions:  523000001 cycles:  798406421 heartbeat IPC: 0.73344 cumulative IPC: 0.58712 (Simulation time: 0 hr 25 min 4 sec) 
Heartbeat CPU  0 instructions:  524000000 cycles:  799769804 heartbeat IPC: 0.73347 cumulative IPC: 0.58740 (Simulation time: 0 hr 25 min 7 sec) 
Heartbeat CPU  0 instructions:  525000002 cycles:  801136597 heartbeat IPC: 0.73164 cumulative IPC: 0.58767 (Simulation time: 0 hr 25 min 10 sec) 
Heartbeat CPU  0 instructions:  526000000 cycles:  802498800 heartbeat IPC: 0.73410 cumulative IPC: 0.58795 (Simulation time: 0 hr 25 min 13 sec) 
Heartbeat CPU  0 instructions:  527000001 cycles:  803854072 heartbeat IPC: 0.73786 cumulative IPC: 0.58823 (Simulation time: 0 hr 25 min 16 sec) 
Heartbeat CPU  0 instructions:  528000000 cycles:  805212142 heartbeat IPC: 0.73634 cumulative IPC: 0.58850 (Simulation time: 0 hr 25 min 18 sec) 
Heartbeat CPU  0 instructions:  529000001 cycles:  806565303 heartbeat IPC: 0.73901 cumulative IPC: 0.58878 (Simulation time: 0 hr 25 min 21 sec) 
Heartbeat CPU  0 instructions:  530000001 cycles:  807919692 heartbeat IPC: 0.73834 cumulative IPC: 0.58906 (Simulation time: 0 hr 25 min 24 sec) 
Heartbeat CPU  0 instructions:  531000003 cycles:  809266477 heartbeat IPC: 0.74251 cumulative IPC: 0.58934 (Simulation time: 0 hr 25 min 27 sec) 
Heartbeat CPU  0 instructions:  532000000 cycles:  810621319 heartbeat IPC: 0.73809 cumulative IPC: 0.58962 (Simulation time: 0 hr 25 min 30 sec) 
Heartbeat CPU  0 instructions:  533000003 cycles:  812150010 heartbeat IPC: 0.65416 cumulative IPC: 0.58975 (Simulation time: 0 hr 25 min 33 sec) 
Heartbeat CPU  0 instructions:  534000003 cycles:  813515343 heartbeat IPC: 0.73242 cumulative IPC: 0.59002 (Simulation time: 0 hr 25 min 35 sec) 
Heartbeat CPU  0 instructions:  535000003 cycles:  814880609 heartbeat IPC: 0.73246 cumulative IPC: 0.59028 (Simulation time: 0 hr 25 min 38 sec) 
Heartbeat CPU  0 instructions:  536000000 cycles:  816232195 heartbeat IPC: 0.73987 cumulative IPC: 0.59056 (Simulation time: 0 hr 25 min 41 sec) 
Heartbeat CPU  0 instructions:  537000003 cycles:  817597245 heartbeat IPC: 0.73258 cumulative IPC: 0.59082 (Simulation time: 0 hr 25 min 44 sec) 
Heartbeat CPU  0 instructions:  538000003 cycles:  818962173 heartbeat IPC: 0.73264 cumulative IPC: 0.59108 (Simulation time: 0 hr 25 min 47 sec) 
Heartbeat CPU  0 instructions:  539000003 cycles:  820329029 heartbeat IPC: 0.73161 cumulative IPC: 0.59134 (Simulation time: 0 hr 25 min 50 sec) 
Heartbeat CPU  0 instructions:  540000000 cycles:  821686616 heartbeat IPC: 0.73660 cumulative IPC: 0.59160 (Simulation time: 0 hr 25 min 52 sec) 
Heartbeat CPU  0 instructions:  541000001 cycles:  823045653 heartbeat IPC: 0.73582 cumulative IPC: 0.59187 (Simulation time: 0 hr 25 min 55 sec) 
Heartbeat CPU  0 instructions:  542000001 cycles:  824405180 heartbeat IPC: 0.73555 cumulative IPC: 0.59213 (Simulation time: 0 hr 25 min 58 sec) 
Heartbeat CPU  0 instructions:  543000001 cycles:  825763542 heartbeat IPC: 0.73618 cumulative IPC: 0.59239 (Simulation time: 0 hr 26 min 1 sec) 
Heartbeat CPU  0 instructions:  544000000 cycles:  827115952 heartbeat IPC: 0.73942 cumulative IPC: 0.59266 (Simulation time: 0 hr 26 min 4 sec) 
Heartbeat CPU  0 instructions:  545000003 cycles:  828464416 heartbeat IPC: 0.74159 cumulative IPC: 0.59292 (Simulation time: 0 hr 26 min 6 sec) 
Heartbeat CPU  0 instructions:  546000003 cycles:  829806946 heartbeat IPC: 0.74486 cumulative IPC: 0.59319 (Simulation time: 0 hr 26 min 9 sec) 
Heartbeat CPU  0 instructions:  547000001 cycles:  831143908 heartbeat IPC: 0.74796 cumulative IPC: 0.59347 (Simulation time: 0 hr 26 min 12 sec) 
Heartbeat CPU  0 instructions:  548000000 cycles:  832485589 heartbeat IPC: 0.74533 cumulative IPC: 0.59374 (Simulation time: 0 hr 26 min 15 sec) 
Heartbeat CPU  0 instructions:  549000003 cycles:  834986722 heartbeat IPC: 0.39982 cumulative IPC: 0.59310 (Simulation time: 0 hr 26 min 18 sec) 
Heartbeat CPU  0 instructions:  550000000 cycles:  837567842 heartbeat IPC: 0.38743 cumulative IPC: 0.59240 (Simulation time: 0 hr 26 min 21 sec) 
Heartbeat CPU  0 instructions:  551000003 cycles:  840149838 heartbeat IPC: 0.38730 cumulative IPC: 0.59170 (Simulation time: 0 hr 26 min 25 sec) 
Heartbeat CPU  0 instructions:  552000000 cycles:  842727413 heartbeat IPC: 0.38796 cumulative IPC: 0.59102 (Simulation time: 0 hr 26 min 28 sec) 
Heartbeat CPU  0 instructions:  553000000 cycles:  845296119 heartbeat IPC: 0.38930 cumulative IPC: 0.59034 (Simulation time: 0 hr 26 min 31 sec) 
Heartbeat CPU  0 instructions:  554000001 cycles:  847867666 heartbeat IPC: 0.38887 cumulative IPC: 0.58967 (Simulation time: 0 hr 26 min 35 sec) 
Heartbeat CPU  0 instructions:  555000000 cycles:  850440062 heartbeat IPC: 0.38874 cumulative IPC: 0.58900 (Simulation time: 0 hr 26 min 38 sec) 
Heartbeat CPU  0 instructions:  556000000 cycles:  853023218 heartbeat IPC: 0.38712 cumulative IPC: 0.58833 (Simulation time: 0 hr 26 min 41 sec) 
Heartbeat CPU  0 instructions:  557000001 cycles:  855594575 heartbeat IPC: 0.38890 cumulative IPC: 0.58767 (Simulation time: 0 hr 26 min 45 sec) 
Heartbeat CPU  0 instructions:  558000003 cycles:  858166930 heartbeat IPC: 0.38875 cumulative IPC: 0.58701 (Simulation time: 0 hr 26 min 48 sec) 
Heartbeat CPU  0 instructions:  559000002 cycles:  860733620 heartbeat IPC: 0.38961 cumulative IPC: 0.58637 (Simulation time: 0 hr 26 min 51 sec) 
Heartbeat CPU  0 instructions:  560000000 cycles:  863307627 heartbeat IPC: 0.38850 cumulative IPC: 0.58572 (Simulation time: 0 hr 26 min 55 sec) 
Heartbeat CPU  0 instructions:  561000003 cycles:  866020042 heartbeat IPC: 0.36868 cumulative IPC: 0.58497 (Simulation time: 0 hr 26 min 58 sec) 
Heartbeat CPU  0 instructions:  562000001 cycles:  868626047 heartbeat IPC: 0.38373 cumulative IPC: 0.58431 (Simulation time: 0 hr 27 min 1 sec) 
Heartbeat CPU  0 instructions:  563000003 cycles:  871237767 heartbeat IPC: 0.38289 cumulative IPC: 0.58364 (Simulation time: 0 hr 27 min 5 sec) 
Heartbeat CPU  0 instructions:  564000000 cycles:  873846330 heartbeat IPC: 0.38335 cumulative IPC: 0.58299 (Simulation time: 0 hr 27 min 8 sec) 
Heartbeat CPU  0 instructions:  565000001 cycles:  876458733 heartbeat IPC: 0.38279 cumulative IPC: 0.58233 (Simulation time: 0 hr 27 min 11 sec) 
Heartbeat CPU  0 instructions:  566000001 cycles:  879065895 heartbeat IPC: 0.38356 cumulative IPC: 0.58169 (Simulation time: 0 hr 27 min 15 sec) 
Heartbeat CPU  0 instructions:  567000001 cycles:  881678279 heartbeat IPC: 0.38279 cumulative IPC: 0.58104 (Simulation time: 0 hr 27 min 18 sec) 
Heartbeat CPU  0 instructions:  568000000 cycles:  884283440 heartbeat IPC: 0.38385 cumulative IPC: 0.58040 (Simulation time: 0 hr 27 min 21 sec) 
Heartbeat CPU  0 instructions:  569000003 cycles:  886889409 heartbeat IPC: 0.38374 cumulative IPC: 0.57977 (Simulation time: 0 hr 27 min 25 sec) 
Heartbeat CPU  0 instructions:  570000000 cycles:  889496293 heartbeat IPC: 0.38360 cumulative IPC: 0.57914 (Simulation time: 0 hr 27 min 28 sec) 
Heartbeat CPU  0 instructions:  571000002 cycles:  892102348 heartbeat IPC: 0.38372 cumulative IPC: 0.57851 (Simulation time: 0 hr 27 min 31 sec) 
Heartbeat CPU  0 instructions:  572000000 cycles:  894705897 heartbeat IPC: 0.38409 cumulative IPC: 0.57789 (Simulation time: 0 hr 27 min 35 sec) 
Heartbeat CPU  0 instructions:  573000000 cycles:  896782052 heartbeat IPC: 0.48166 cumulative IPC: 0.57765 (Simulation time: 0 hr 27 min 38 sec) 
Heartbeat CPU  0 instructions:  574000002 cycles:  898336758 heartbeat IPC: 0.64321 cumulative IPC: 0.57777 (Simulation time: 0 hr 27 min 41 sec) 
Heartbeat CPU  0 instructions:  575000000 cycles:  899897269 heartbeat IPC: 0.64081 cumulative IPC: 0.57789 (Simulation time: 0 hr 27 min 44 sec) 
Heartbeat CPU  0 instructions:  576000000 cycles:  901463707 heartbeat IPC: 0.63839 cumulative IPC: 0.57801 (Simulation time: 0 hr 27 min 47 sec) 
Heartbeat CPU  0 instructions:  577000001 cycles:  903006647 heartbeat IPC: 0.64811 cumulative IPC: 0.57814 (Simulation time: 0 hr 27 min 50 sec) 
Heartbeat CPU  0 instructions:  578000000 cycles:  904581757 heartbeat IPC: 0.63488 cumulative IPC: 0.57825 (Simulation time: 0 hr 27 min 52 sec) 
Heartbeat CPU  0 instructions:  579000000 cycles:  906166325 heartbeat IPC: 0.63109 cumulative IPC: 0.57835 (Simulation time: 0 hr 27 min 55 sec) 
Heartbeat CPU  0 instructions:  580000000 cycles:  907728891 heartbeat IPC: 0.63997 cumulative IPC: 0.57846 (Simulation time: 0 hr 27 min 58 sec) 
Heartbeat CPU  0 instructions:  581000001 cycles:  909307948 heartbeat IPC: 0.63329 cumulative IPC: 0.57857 (Simulation time: 0 hr 28 min 1 sec) 
Heartbeat CPU  0 instructions:  582000003 cycles:  910895903 heartbeat IPC: 0.62974 cumulative IPC: 0.57867 (Simulation time: 0 hr 28 min 4 sec) 
Heartbeat CPU  0 instructions:  583000000 cycles:  912497167 heartbeat IPC: 0.62450 cumulative IPC: 0.57875 (Simulation time: 0 hr 28 min 7 sec) 
Heartbeat CPU  0 instructions:  584000000 cycles:  914078177 heartbeat IPC: 0.63251 cumulative IPC: 0.57886 (Simulation time: 0 hr 28 min 10 sec) 
Heartbeat CPU  0 instructions:  585000002 cycles:  915899366 heartbeat IPC: 0.54909 cumulative IPC: 0.57879 (Simulation time: 0 hr 28 min 13 sec) 
Heartbeat CPU  0 instructions:  586000001 cycles:  917486930 heartbeat IPC: 0.62990 cumulative IPC: 0.57889 (Simulation time: 0 hr 28 min 16 sec) 
Heartbeat CPU  0 instructions:  587000000 cycles:  919083083 heartbeat IPC: 0.62651 cumulative IPC: 0.57898 (Simulation time: 0 hr 28 min 19 sec) 
Heartbeat CPU  0 instructions:  588000000 cycles:  920689516 heartbeat IPC: 0.62250 cumulative IPC: 0.57906 (Simulation time: 0 hr 28 min 22 sec) 
Heartbeat CPU  0 instructions:  589000001 cycles:  922300717 heartbeat IPC: 0.62066 cumulative IPC: 0.57914 (Simulation time: 0 hr 28 min 25 sec) 
Heartbeat CPU  0 instructions:  590000001 cycles:  923905786 heartbeat IPC: 0.62303 cumulative IPC: 0.57922 (Simulation time: 0 hr 28 min 28 sec) 
Heartbeat CPU  0 instructions:  591000000 cycles:  925519053 heartbeat IPC: 0.61986 cumulative IPC: 0.57930 (Simulation time: 0 hr 28 min 31 sec) 
Heartbeat CPU  0 instructions:  592000000 cycles:  927129706 heartbeat IPC: 0.62087 cumulative IPC: 0.57938 (Simulation time: 0 hr 28 min 34 sec) 
Heartbeat CPU  0 instructions:  593000002 cycles:  928748384 heartbeat IPC: 0.61779 cumulative IPC: 0.57945 (Simulation time: 0 hr 28 min 37 sec) 
Heartbeat CPU  0 instructions:  594000001 cycles:  930335954 heartbeat IPC: 0.62989 cumulative IPC: 0.57955 (Simulation time: 0 hr 28 min 40 sec) 
Heartbeat CPU  0 instructions:  595000003 cycles:  931925251 heartbeat IPC: 0.62921 cumulative IPC: 0.57964 (Simulation time: 0 hr 28 min 43 sec) 
Heartbeat CPU  0 instructions:  596000000 cycles:  933510483 heartbeat IPC: 0.63082 cumulative IPC: 0.57973 (Simulation time: 0 hr 28 min 46 sec) 
Heartbeat CPU  0 instructions:  597000003 cycles:  935159328 heartbeat IPC: 0.60649 cumulative IPC: 0.57979 (Simulation time: 0 hr 28 min 49 sec) 
Heartbeat CPU  0 instructions:  598000002 cycles:  936509742 heartbeat IPC: 0.74051 cumulative IPC: 0.58004 (Simulation time: 0 hr 28 min 52 sec) 
Heartbeat CPU  0 instructions:  599000002 cycles:  937856972 heartbeat IPC: 0.74226 cumulative IPC: 0.58029 (Simulation time: 0 hr 28 min 54 sec) 
Heartbeat CPU  0 instructions:  600000000 cycles:  939206763 heartbeat IPC: 0.74085 cumulative IPC: 0.58054 (Simulation time: 0 hr 28 min 57 sec) 
Finished CPU 0 instructions: 500000000 cycles: 861261324 cumulative IPC: 0.58054 (Simulation time: 0 hr 28 min 57 sec) 

ChampSim completed all CPUs

[ROI Statistics]
Core_0_instructions 500000000
Core_0_cycles 861261324
Core_0_IPC 0.58054

Core_0_branch_prediction_accuracy 99.79948
Core_0_branch_MPKI 0.03552
Core_0_average_ROB_occupancy_at_mispredict 248.26557

Core_0_L1D_total_access 242652206
Core_0_L1D_total_hit 230374043
Core_0_L1D_total_miss 12278163
Core_0_L1D_loads 218403030
Core_0_L1D_load_hit 206300376
Core_0_L1D_load_miss 12102654
Core_0_L1D_RFOs 24249176
Core_0_L1D_RFO_hit 24073667
Core_0_L1D_RFO_miss 175509
Core_0_L1D_prefetches 0
Core_0_L1D_prefetch_hit 0
Core_0_L1D_prefetch_miss 0
Core_0_L1D_writebacks 0
Core_0_L1D_writeback_hit 0
Core_0_L1D_writeback_miss 0
Core_0_L1D_prefetch_requested 0
Core_0_L1D_prefetch_dropped 0
Core_0_L1D_prefetch_issued 0
Core_0_L1D_prefetch_filled 0
Core_0_L1D_prefetch_useful 0
Core_0_L1D_prefetch_useless 0
Core_0_L1D_prefetch_late 0
Core_0_L1D_average_miss_latency 60.34708

Core_0_L1D_rq_access 258725948
Core_0_L1D_rq_forward 0
Core_0_L1D_rq_merged 39458430
Core_0_L1D_rq_to_cache 219267518
Core_0_L1D_rq_full 0

Core_0_L1D_wq_access 25182875
Core_0_L1D_wq_forward 0
Core_0_L1D_wq_merged 212769
Core_0_L1D_wq_to_cache 24970106
Core_0_L1D_wq_full 344694

Core_0_L1D_pq_access 0
Core_0_L1D_pq_forward 0
Core_0_L1D_pq_merged 0
Core_0_L1D_pq_to_cache 0
Core_0_L1D_pq_full 0

Core_0_L1D_acc_epochs 868445
Core_0_L1D_acc_level_0 868445
Core_0_L1D_acc_level_1 0
Core_0_L1D_acc_level_2 0
Core_0_L1D_acc_level_3 0
Core_0_L1D_acc_level_4 0
Core_0_L1D_acc_level_5 0
Core_0_L1D_acc_level_6 0
Core_0_L1D_acc_level_7 0
Core_0_L1D_acc_level_8 0
Core_0_L1D_acc_level_9 0

Core_0_L1I_total_access 131595308
Core_0_L1I_total_hit 131594659
Core_0_L1I_total_miss 649
Core_0_L1I_loads 131595308
Core_0_L1I_load_hit 131594659
Core_0_L1I_load_miss 649
Core_0_L1I_RFOs 0
Core_0_L1I_RFO_hit 0
Core_0_L1I_RFO_miss 0
Core_0_L1I_prefetches 0
Core_0_L1I_prefetch_hit 0
Core_0_L1I_prefetch_miss 0
Core_0_L1I_writebacks 0
Core_0_L1I_writeback_hit 0
Core_0_L1I_writeback_miss 0
Core_0_L1I_prefetch_requested 0
Core_0_L1I_prefetch_dropped 0
Core_0_L1I_prefetch_issued 0
Core_0_L1I_prefetch_filled 0
Core_0_L1I_prefetch_useful 0
Core_0_L1I_prefetch_useless 0
Core_0_L1I_prefetch_late 0
Core_0_L1I_average_miss_latency 320.96764

Core_0_L1I_rq_access 500000002
Core_0_L1I_rq_forward 0
Core_0_L1I_rq_merged 368404210
Core_0_L1I_rq_to_cache 131595792
Core_0_L1I_rq_full 0

Core_0_L1I_wq_access 0
Core_0_L1I_wq_forward 0
Core_0_L1I_wq_merged 0
Core_0_L1I_wq_to_cache 0
Core_0_L1I_wq_full 0

Core_0_L1I_pq_access 0
Core_0_L1I_pq_forward 0
Core_0_L1I_pq_merged 0
Core_0_L1I_pq_to_cache 0
Core_0_L1I_pq_full 0

Core_0_L1I_acc_epochs 868445
Core_0_L1I_acc_level_0 868445
Core_0_L1I_acc_level_1 0
Core_0_L1I_acc_level_2 0
Core_0_L1I_acc_level_3 0
Core_0_L1I_acc_level_4 0
Core_0_L1I_acc_level_5 0
Core_0_L1I_acc_level_6 0
Core_0_L1I_acc_level_7 0
Core_0_L1I_acc_level_8 0
Core_0_L1I_acc_level_9 0

Core_0_L2C_total_access 23866591
Core_0_L2C_total_hit 19366501
Core_0_L2C_total_miss 4500090
Core_0_L2C_loads 12102992
Core_0_L2C_load_hit 8979443
Core_0_L2C_load_miss 3123549
Core_0_L2C_RFOs 175471
Core_0_L2C_RFO_hit 5537
Core_0_L2C_RFO_miss 169934
Core_0_L2C_prefetches 8967937
Core_0_L2C_prefetch_hit 7761887
Core_0_L2C_prefetch_miss 1206050
Core_0_L2C_writebacks 2620191
Core_0_L2C_writeback_hit 2619634
Core_0_L2C_writeback_miss 557
Core_0_L2C_prefetch_requested 21997503
Core_0_L2C_prefetch_dropped 0
Core_0_L2C_prefetch_issued 21997503
Core_0_L2C_prefetch_filled 1597916
Core_0_L2C_prefetch_useful 1434863
Core_0_L2C_prefetch_useless 162963
Core_0_L2C_prefetch_late 45487
Core_0_L2C_average_miss_latency 136.71806

Core_0_L2C_rq_access 12278812
Core_0_L2C_rq_forward 0
Core_0_L2C_rq_merged 0
Core_0_L2C_rq_to_cache 12278463
Core_0_L2C_rq_full 0

Core_0_L2C_wq_access 2620191
Core_0_L2C_wq_forward 349
Core_0_L2C_wq_merged 0
Core_0_L2C_wq_to_cache 2620191
Core_0_L2C_wq_full 0

Core_0_L2C_pq_access 21997503
Core_0_L2C_pq_forward 0
Core_0_L2C_pq_merged 72856
Core_0_L2C_pq_to_cache 21924647
Core_0_L2C_pq_full 0

Core_0_L2C_acc_epochs 868445
Core_0_L2C_acc_level_0 267199
Core_0_L2C_acc_level_1 67702
Core_0_L2C_acc_level_2 59733
Core_0_L2C_acc_level_3 42637
Core_0_L2C_acc_level_4 33894
Core_0_L2C_acc_level_5 60130
Core_0_L2C_acc_level_6 37229
Core_0_L2C_acc_level_7 42157
Core_0_L2C_acc_level_8 51833
Core_0_L2C_acc_level_9 205931

Core_0_LLC_total_access 15048926
Core_0_LLC_total_hit 10314879
Core_0_LLC_total_miss 4734047
Core_0_LLC_loads 3078032
Core_0_LLC_load_hit 1655201
Core_0_LLC_load_miss 1422831
Core_0_LLC_RFOs 169934
Core_0_LLC_RFO_hit 144170
Core_0_LLC_RFO_miss 25764
Core_0_LLC_prefetches 10642219
Core_0_LLC_prefetch_hit 7463070
Core_0_LLC_prefetch_miss 3179149
Core_0_LLC_writebacks 1158741
Core_0_LLC_writeback_hit 1052438
Core_0_LLC_writeback_miss 106303
Core_0_LLC_prefetch_requested 0
Core_0_LLC_prefetch_dropped 0
Core_0_LLC_prefetch_issued 0
Core_0_LLC_prefetch_filled 3851523
Core_0_LLC_prefetch_useful 1267875
Core_0_LLC_prefetch_useless 2573131
Core_0_LLC_prefetch_late 14976
Core_0_LLC_average_miss_latency 290.18828

Core_0_LLC_rq_access 3247996
Core_0_LLC_rq_forward 0
Core_0_LLC_rq_merged 0
Core_0_LLC_rq_to_cache 3247966
Core_0_LLC_rq_full 0

Core_0_LLC_wq_access 1158741
Core_0_LLC_wq_forward 545
Core_0_LLC_wq_merged 0
Core_0_LLC_wq_to_cache 1158741
Core_0_LLC_wq_full 0

Core_0_LLC_pq_access 13710185
Core_0_LLC_pq_forward 0
Core_0_LLC_pq_merged 84934
Core_0_LLC_pq_to_cache 13624736
Core_0_LLC_pq_full 0

Core_0_LLC_acc_epochs 917195
Core_0_LLC_acc_level_0 322196
Core_0_LLC_acc_level_1 121273
Core_0_LLC_acc_level_2 133480
Core_0_LLC_acc_level_3 93732
Core_0_LLC_acc_level_4 56265
Core_0_LLC_acc_level_5 50213
Core_0_LLC_acc_level_6 32091
Core_0_LLC_acc_level_7 21654
Core_0_LLC_acc_level_8 15343
Core_0_LLC_acc_level_9 70948

Core_0_major_page_fault 0
Core_0_minor_page_fault 102074

spp.pref.total 21997503
spp.pref.at_L2 3400849
spp.pref.at_LLC 18596654

spp.depth.max 11
spp.depth.min 0
spp.depth.avg 2

spp.breadth.max 2
spp.breadth.min 0
spp.breadth.avg 0

delta_1 14783118
delta_-1 3340957
delta_11 3140817
delta_23 2142337
delta_12 1612504
delta_22 796338
delta_29 220120
delta_30 150729
delta_-29 105653
delta_-2 24338
delta_2 5588
delta_3 3477
delta_4 2973
delta_5 2935
delta_-3 1515
delta_6 756
delta_7 564
delta_-30 414
delta_-28 381
delta_-9 315
delta_-4 302
delta_8 280
delta_9 223
delta_15 198
delta_-5 126
delta_-8 120
delta_-6 114
delta_59 108
delta_-7 68
delta_-25 59
delta_-26 59
delta_-49 55
delta_-12 45
delta_-37 38
delta_14 11
delta_10 10
delta_58 5
delta_-22 4
delta_-18 4
delta_-41 3
delta_-17 2
delta_-23 2
delta_-32 1

depth_1_delta_1 4309908
depth_1_delta_23 1740923
depth_1_delta_11 1552999
depth_1_delta_12 852341
depth_1_delta_-1 831517
depth_1_delta_22 588435
depth_1_delta_29 194870
depth_1_delta_30 73683
depth_1_delta_-29 30539
depth_1_delta_2 5256
depth_1_delta_3 3312
depth_1_delta_4 2483
depth_1_delta_-2 2393
depth_1_delta_5 2353
depth_1_delta_-3 885
depth_1_delta_6 589
depth_1_delta_7 533
depth_1_delta_-30 411
depth_1_delta_-4 295
depth_1_delta_-9 279
depth_1_delta_8 270
depth_1_delta_-28 268
depth_1_delta_9 209
depth_1_delta_15 197
depth_1_delta_-5 126
depth_1_delta_-8 120
depth_1_delta_-6 114
depth_1_delta_59 108
depth_1_delta_-7 68
depth_1_delta_-26 59
depth_1_delta_-25 59
depth_1_delta_-49 55
depth_1_delta_-12 45
depth_1_delta_-37 38
depth_1_delta_14 11
depth_1_delta_10 10
depth_1_delta_58 5
depth_1_delta_-22 4
depth_1_delta_-18 4
depth_1_delta_-41 3
depth_1_delta_-17 2
depth_1_delta_-23 2
depth_1_delta_-32 1
depth_2_delta_1 3674954
depth_2_delta_11 1050685
depth_2_delta_-1 803276
depth_2_delta_12 538356
depth_2_delta_23 401288
depth_2_delta_22 207826
depth_2_delta_30 31056
depth_2_delta_-29 27457
depth_2_delta_29 24917
depth_2_delta_-2 21912
depth_2_delta_5 574
depth_2_delta_-3 509
depth_2_delta_4 381
depth_2_delta_2 320
depth_2_delta_3 164
depth_2_delta_6 129
depth_2_delta_-28 113
depth_2_delta_-9 36
depth_2_delta_7 30
depth_2_delta_9 14
depth_2_delta_8 10
depth_2_delta_-4 7
depth_2_delta_-30 3
depth_2_delta_15 1
depth_3_delta_1 2788796
depth_3_delta_-1 776099
depth_3_delta_11 453051
depth_3_delta_12 198059
depth_3_delta_-29 22116
depth_3_delta_30 21915
depth_3_delta_29 333
depth_3_delta_23 123
depth_3_delta_-3 109
depth_3_delta_4 106
depth_3_delta_22 55
depth_3_delta_6 38
depth_3_delta_-2 33
depth_3_delta_2 12
depth_3_delta_5 8
depth_3_delta_3 1
depth_3_delta_7 1
depth_4_delta_1 2284576
depth_4_delta_-1 682436
depth_4_delta_11 82980
depth_4_delta_12 22589
depth_4_delta_-29 16469
depth_4_delta_30 15721
depth_4_delta_22 22
depth_4_delta_-3 12
depth_4_delta_4 3
depth_4_delta_23 2
depth_5_delta_1 1226414
depth_5_delta_-1 245711
depth_5_delta_-29 8210
depth_5_delta_30 7617
depth_5_delta_12 1159
depth_5_delta_11 1102
depth_5_delta_23 1
depth_6_delta_1 263594
depth_6_delta_-1 1918
depth_6_delta_-29 862
depth_6_delta_30 737
depth_7_delta_1 114684
depth_8_delta_1 72212
depth_9_delta_1 37182
depth_10_delta_1 10670
depth_11_delta_1 128

Channel_0_RQ_row_buffer_hit 1335262
Channel_0_RQ_row_buffer_miss 3292471
Channel_0_WQ_row_buffer_hit 126997
Channel_0_WQ_row_buffer_miss 668179
Channel_0_WQ_full 137
Channel_0_dbus_congested 3364114

avg_congested_cycle 43

DRAM_bw_pochs 3668777
DRAM_bw_level_0 1867555
DRAM_bw_level_1 488448
DRAM_bw_level_2 405284
DRAM_bw_level_3 907490
