*************************************************
   ChampSim Multicore Out-of-Order Simulator
   Last compiled: Dec 11 2024 17:59:53
*************************************************
parsing config file: /home/functionmain/桌面/Pythia/config/spp_dev2.ini

trace_0 /home/functionmain/桌面/Pythia/traces/459.GemsFDTD-1211B.champsimtrace.xz
adding L2C_PREFETCHER: SPP_dev2
Initialize SIGNATURE TABLE
ST_SET: 1
ST_WAY: 256
ST_TAG_BIT: 16
ST_TAG_MASK: ffff

Initialize PATTERN TABLE
PT_SET: 512
PT_WAY: 4
SIG_DELTA_BIT: 7
C_SIG_BIT: 4
C_DELTA_BIT: 4

Initialize PREFETCH FILTER
FILTER_SET: 1024
fill_threshold: 90
pf_threshold: 40

Initialize SHIP state
warmup_instructions 100000000
simulation_instructions 500000000
champsim_seed 263
measure_ipc 0
measure_ipc_epoch 1000
measure_dram_bw 1
measure_dram_bw_epoch 256
measure_cache_acc 1
measure_cache_acc_epoch 1024
l1d_perfect 0
l2c_perfect 0
llc_perfect 0
l1d_semi_perfect 0
l2c_semi_perfect 0
llc_semi_perfect 0
semi_perfect_cache_page_buffer_size 64

num_cpus 1
cpu_freq 4000
dram_io_freq 600
page_size 4096
block_size 64
max_read_per_cycle 8
max_fill_per_cycle 1
dram_channels 1
log2_dram_channels 0
dram_ranks 1
dram_banks 8
dram_rows 65536
dram_columns 128
dram_row_size 8
dram_size 4096
dram_pages 1048576

fetch_width 6
decode_width 6
exec_width 4
lq_width 2
sq_width 2
retire_width 4
scheduler_size 128
branch_mispredict_penalty 20
rob_size 256
lq_size 72
sq_size 56
num_instr_destinations_sparc 4
num_instr_destinations 2
num_instr_sources 4

itlb_set 16
itlb_way 8
itlb_rq_size 16
itlb_wq_size 16
itlb_pq_size 0
itlb_mshr_size 8
itlb_latency 1

dtlb_set 16
dtlb_way 4
dtlb_rq_size 16
dtlb_wq_size 16
dtlb_pq_size 0
dtlb_mshr_size 8
dtlb_latency 1

stlb_set 128
stlb_way 12
stlb_rq_size 32
stlb_wq_size 32
stlb_pq_size 0
stlb_mshr_size 16
stlb_latency 8

l1i_size 32
l1i_set 64
l1i_way 8
l1i_rq_size 64
l1i_wq_size 64
l1i_pq_size 8
l1i_mshr_size 8
l1i_latency 1

l1d_size 32
l1d_set 64
l1d_way 8
l1d_rq_size 64
l1d_wq_size 64
l1d_pq_size 8
l1d_mshr_size 16
l1d_latency 4

l2c_size 256
l2c_set 512
l2c_way 8
l2c_rq_size 32
l2c_wq_size 32
l2c_pq_size 32
l2c_mshr_size 32
l2c_latency 10

llc_size 2048
llc_set 2048
llc_way 16
llc_rq_size 32
llc_wq_size 32
llc_pq_size 32
llc_mshr_size 64
llc_latency 20

dram_channel_width 8
dram_wq_size 64
dram_rq_size 64
tRP 15
tRCD 15
tCAS 12.5
dram_dbus_turn_around_time 30
dram_write_high_wm 56
dram_write_low_wm 48
min_dram_writes_per_switch 16
dram_mtps 600
dram_dbus_return_time 53


Heartbeat CPU  0 instructions:    1000003 cycles:     792316 heartbeat IPC: 1.26213 cumulative IPC: 1.26213 (Simulation time: 0 hr 0 min 2 sec) 
Heartbeat CPU  0 instructions:    2000002 cycles:    1584052 heartbeat IPC: 1.26305 cumulative IPC: 1.26259 (Simulation time: 0 hr 0 min 5 sec) 
Heartbeat CPU  0 instructions:    3000003 cycles:    2375810 heartbeat IPC: 1.26301 cumulative IPC: 1.26273 (Simulation time: 0 hr 0 min 7 sec) 
Heartbeat CPU  0 instructions:    4000000 cycles:    3167487 heartbeat IPC: 1.26314 cumulative IPC: 1.26283 (Simulation time: 0 hr 0 min 10 sec) 
Heartbeat CPU  0 instructions:    5000000 cycles:    3959187 heartbeat IPC: 1.26310 cumulative IPC: 1.26289 (Simulation time: 0 hr 0 min 12 sec) 
Heartbeat CPU  0 instructions:    6000002 cycles:    4750942 heartbeat IPC: 1.26302 cumulative IPC: 1.26291 (Simulation time: 0 hr 0 min 15 sec) 
Heartbeat CPU  0 instructions:    7000000 cycles:    5542531 heartbeat IPC: 1.26328 cumulative IPC: 1.26296 (Simulation time: 0 hr 0 min 17 sec) 
Heartbeat CPU  0 instructions:    8000000 cycles:    6334367 heartbeat IPC: 1.26289 cumulative IPC: 1.26295 (Simulation time: 0 hr 0 min 20 sec) 
Heartbeat CPU  0 instructions:    9000000 cycles:    7126140 heartbeat IPC: 1.26299 cumulative IPC: 1.26296 (Simulation time: 0 hr 0 min 22 sec) 
Heartbeat CPU  0 instructions:   10000001 cycles:    7917666 heartbeat IPC: 1.26338 cumulative IPC: 1.26300 (Simulation time: 0 hr 0 min 25 sec) 
Heartbeat CPU  0 instructions:   11000000 cycles:    8709103 heartbeat IPC: 1.26352 cumulative IPC: 1.26305 (Simulation time: 0 hr 0 min 27 sec) 
Heartbeat CPU  0 instructions:   12000000 cycles:    9500907 heartbeat IPC: 1.26294 cumulative IPC: 1.26304 (Simulation time: 0 hr 0 min 30 sec) 
Heartbeat CPU  0 instructions:   13000000 cycles:   10292611 heartbeat IPC: 1.26310 cumulative IPC: 1.26304 (Simulation time: 0 hr 0 min 33 sec) 
Heartbeat CPU  0 instructions:   14000002 cycles:   11084269 heartbeat IPC: 1.26317 cumulative IPC: 1.26305 (Simulation time: 0 hr 0 min 35 sec) 
Heartbeat CPU  0 instructions:   15000000 cycles:   11876022 heartbeat IPC: 1.26302 cumulative IPC: 1.26305 (Simulation time: 0 hr 0 min 38 sec) 
Heartbeat CPU  0 instructions:   16000000 cycles:   12667763 heartbeat IPC: 1.26304 cumulative IPC: 1.26305 (Simulation time: 0 hr 0 min 40 sec) 
Heartbeat CPU  0 instructions:   17000001 cycles:   13459534 heartbeat IPC: 1.26299 cumulative IPC: 1.26305 (Simulation time: 0 hr 0 min 43 sec) 
Heartbeat CPU  0 instructions:   18000002 cycles:   14251111 heartbeat IPC: 1.26330 cumulative IPC: 1.26306 (Simulation time: 0 hr 0 min 45 sec) 
Heartbeat CPU  0 instructions:   19000000 cycles:   15042920 heartbeat IPC: 1.26293 cumulative IPC: 1.26305 (Simulation time: 0 hr 0 min 48 sec) 
Heartbeat CPU  0 instructions:   20000000 cycles:   15834334 heartbeat IPC: 1.26356 cumulative IPC: 1.26308 (Simulation time: 0 hr 0 min 50 sec) 
Heartbeat CPU  0 instructions:   21000000 cycles:   16625833 heartbeat IPC: 1.26343 cumulative IPC: 1.26309 (Simulation time: 0 hr 0 min 53 sec) 
Heartbeat CPU  0 instructions:   22000003 cycles:   17417513 heartbeat IPC: 1.26314 cumulative IPC: 1.26310 (Simulation time: 0 hr 0 min 55 sec) 
Heartbeat CPU  0 instructions:   23000000 cycles:   18209250 heartbeat IPC: 1.26304 cumulative IPC: 1.26309 (Simulation time: 0 hr 0 min 58 sec) 
Heartbeat CPU  0 instructions:   24000000 cycles:   19000970 heartbeat IPC: 1.26307 cumulative IPC: 1.26309 (Simulation time: 0 hr 1 min 0 sec) 
Heartbeat CPU  0 instructions:   25000001 cycles:   19792739 heartbeat IPC: 1.26300 cumulative IPC: 1.26309 (Simulation time: 0 hr 1 min 3 sec) 
Heartbeat CPU  0 instructions:   26000002 cycles:   20584436 heartbeat IPC: 1.26311 cumulative IPC: 1.26309 (Simulation time: 0 hr 1 min 5 sec) 
Heartbeat CPU  0 instructions:   27000001 cycles:   21376043 heartbeat IPC: 1.26325 cumulative IPC: 1.26310 (Simulation time: 0 hr 1 min 8 sec) 
Heartbeat CPU  0 instructions:   28000000 cycles:   22167913 heartbeat IPC: 1.26283 cumulative IPC: 1.26309 (Simulation time: 0 hr 1 min 10 sec) 
Heartbeat CPU  0 instructions:   29000001 cycles:   22959678 heartbeat IPC: 1.26300 cumulative IPC: 1.26308 (Simulation time: 0 hr 1 min 13 sec) 
Heartbeat CPU  0 instructions:   30000002 cycles:   23751331 heartbeat IPC: 1.26318 cumulative IPC: 1.26309 (Simulation time: 0 hr 1 min 15 sec) 
Heartbeat CPU  0 instructions:   31000001 cycles:   24542935 heartbeat IPC: 1.26326 cumulative IPC: 1.26309 (Simulation time: 0 hr 1 min 18 sec) 
Heartbeat CPU  0 instructions:   32000000 cycles:   25334226 heartbeat IPC: 1.26376 cumulative IPC: 1.26311 (Simulation time: 0 hr 1 min 20 sec) 
Heartbeat CPU  0 instructions:   33000001 cycles:   26126051 heartbeat IPC: 1.26291 cumulative IPC: 1.26311 (Simulation time: 0 hr 1 min 23 sec) 
Heartbeat CPU  0 instructions:   34000003 cycles:   26917784 heartbeat IPC: 1.26305 cumulative IPC: 1.26311 (Simulation time: 0 hr 1 min 25 sec) 
Heartbeat CPU  0 instructions:   35000001 cycles:   27709477 heartbeat IPC: 1.26311 cumulative IPC: 1.26311 (Simulation time: 0 hr 1 min 28 sec) 
Heartbeat CPU  0 instructions:   36000000 cycles:   28501254 heartbeat IPC: 1.26298 cumulative IPC: 1.26310 (Simulation time: 0 hr 1 min 30 sec) 
Heartbeat CPU  0 instructions:   37000000 cycles:   29293046 heartbeat IPC: 1.26296 cumulative IPC: 1.26310 (Simulation time: 0 hr 1 min 33 sec) 
Heartbeat CPU  0 instructions:   38000000 cycles:   30084655 heartbeat IPC: 1.26325 cumulative IPC: 1.26310 (Simulation time: 0 hr 1 min 35 sec) 
Heartbeat CPU  0 instructions:   39000001 cycles:   30876265 heartbeat IPC: 1.26325 cumulative IPC: 1.26311 (Simulation time: 0 hr 1 min 38 sec) 
Heartbeat CPU  0 instructions:   40000000 cycles:   31659049 heartbeat IPC: 1.27749 cumulative IPC: 1.26346 (Simulation time: 0 hr 1 min 40 sec) 
Heartbeat CPU  0 instructions:   41000001 cycles:   32432058 heartbeat IPC: 1.29365 cumulative IPC: 1.26418 (Simulation time: 0 hr 1 min 43 sec) 
Heartbeat CPU  0 instructions:   42000003 cycles:   33204752 heartbeat IPC: 1.29418 cumulative IPC: 1.26488 (Simulation time: 0 hr 1 min 46 sec) 
Heartbeat CPU  0 instructions:   43000001 cycles:   33980511 heartbeat IPC: 1.28906 cumulative IPC: 1.26543 (Simulation time: 0 hr 1 min 48 sec) 
Heartbeat CPU  0 instructions:   44000000 cycles:   34771906 heartbeat IPC: 1.26359 cumulative IPC: 1.26539 (Simulation time: 0 hr 1 min 51 sec) 
Heartbeat CPU  0 instructions:   45000001 cycles:   35563226 heartbeat IPC: 1.26371 cumulative IPC: 1.26535 (Simulation time: 0 hr 1 min 53 sec) 
Heartbeat CPU  0 instructions:   46000003 cycles:   36354818 heartbeat IPC: 1.26328 cumulative IPC: 1.26531 (Simulation time: 0 hr 1 min 56 sec) 
Heartbeat CPU  0 instructions:   47000001 cycles:   37145953 heartbeat IPC: 1.26400 cumulative IPC: 1.26528 (Simulation time: 0 hr 1 min 58 sec) 
Heartbeat CPU  0 instructions:   48000000 cycles:   37937268 heartbeat IPC: 1.26372 cumulative IPC: 1.26525 (Simulation time: 0 hr 2 min 1 sec) 
Heartbeat CPU  0 instructions:   49000001 cycles:   38728391 heartbeat IPC: 1.26403 cumulative IPC: 1.26522 (Simulation time: 0 hr 2 min 3 sec) 
Heartbeat CPU  0 instructions:   50000003 cycles:   39519554 heartbeat IPC: 1.26396 cumulative IPC: 1.26520 (Simulation time: 0 hr 2 min 6 sec) 
Heartbeat CPU  0 instructions:   51000001 cycles:   40310973 heartbeat IPC: 1.26355 cumulative IPC: 1.26516 (Simulation time: 0 hr 2 min 8 sec) 
Heartbeat CPU  0 instructions:   52000000 cycles:   41102351 heartbeat IPC: 1.26362 cumulative IPC: 1.26513 (Simulation time: 0 hr 2 min 11 sec) 
Heartbeat CPU  0 instructions:   53000003 cycles:   41893833 heartbeat IPC: 1.26346 cumulative IPC: 1.26510 (Simulation time: 0 hr 2 min 13 sec) 
Heartbeat CPU  0 instructions:   54000002 cycles:   42685244 heartbeat IPC: 1.26356 cumulative IPC: 1.26507 (Simulation time: 0 hr 2 min 16 sec) 
Heartbeat CPU  0 instructions:   55000002 cycles:   43476483 heartbeat IPC: 1.26384 cumulative IPC: 1.26505 (Simulation time: 0 hr 2 min 18 sec) 
Heartbeat CPU  0 instructions:   56000000 cycles:   44267659 heartbeat IPC: 1.26394 cumulative IPC: 1.26503 (Simulation time: 0 hr 2 min 21 sec) 
Heartbeat CPU  0 instructions:   57000000 cycles:   45059185 heartbeat IPC: 1.26338 cumulative IPC: 1.26500 (Simulation time: 0 hr 2 min 23 sec) 
Heartbeat CPU  0 instructions:   58000002 cycles:   45850478 heartbeat IPC: 1.26376 cumulative IPC: 1.26498 (Simulation time: 0 hr 2 min 26 sec) 
Heartbeat CPU  0 instructions:   59000000 cycles:   46641909 heartbeat IPC: 1.26353 cumulative IPC: 1.26496 (Simulation time: 0 hr 2 min 28 sec) 
Heartbeat CPU  0 instructions:   60000000 cycles:   47433191 heartbeat IPC: 1.26377 cumulative IPC: 1.26494 (Simulation time: 0 hr 2 min 31 sec) 
Heartbeat CPU  0 instructions:   61000000 cycles:   48224298 heartbeat IPC: 1.26405 cumulative IPC: 1.26492 (Simulation time: 0 hr 2 min 33 sec) 
Heartbeat CPU  0 instructions:   62000002 cycles:   49015866 heartbeat IPC: 1.26332 cumulative IPC: 1.26490 (Simulation time: 0 hr 2 min 36 sec) 
Heartbeat CPU  0 instructions:   63000000 cycles:   49807241 heartbeat IPC: 1.26362 cumulative IPC: 1.26488 (Simulation time: 0 hr 2 min 38 sec) 
Heartbeat CPU  0 instructions:   64000000 cycles:   50598595 heartbeat IPC: 1.26366 cumulative IPC: 1.26486 (Simulation time: 0 hr 2 min 41 sec) 
Heartbeat CPU  0 instructions:   65000000 cycles:   51390154 heartbeat IPC: 1.26333 cumulative IPC: 1.26483 (Simulation time: 0 hr 2 min 43 sec) 
Heartbeat CPU  0 instructions:   66000003 cycles:   52181421 heartbeat IPC: 1.26380 cumulative IPC: 1.26482 (Simulation time: 0 hr 2 min 46 sec) 
Heartbeat CPU  0 instructions:   67000000 cycles:   52972782 heartbeat IPC: 1.26364 cumulative IPC: 1.26480 (Simulation time: 0 hr 2 min 48 sec) 
Heartbeat CPU  0 instructions:   68000000 cycles:   53763934 heartbeat IPC: 1.26398 cumulative IPC: 1.26479 (Simulation time: 0 hr 2 min 51 sec) 
Heartbeat CPU  0 instructions:   69000001 cycles:   54555285 heartbeat IPC: 1.26366 cumulative IPC: 1.26477 (Simulation time: 0 hr 2 min 53 sec) 
Heartbeat CPU  0 instructions:   70000002 cycles:   55346548 heartbeat IPC: 1.26380 cumulative IPC: 1.26476 (Simulation time: 0 hr 2 min 56 sec) 
Heartbeat CPU  0 instructions:   71000001 cycles:   56137828 heartbeat IPC: 1.26377 cumulative IPC: 1.26474 (Simulation time: 0 hr 2 min 58 sec) 
Heartbeat CPU  0 instructions:   72000000 cycles:   56928944 heartbeat IPC: 1.26404 cumulative IPC: 1.26473 (Simulation time: 0 hr 3 min 1 sec) 
Heartbeat CPU  0 instructions:   73000003 cycles:   57720606 heartbeat IPC: 1.26317 cumulative IPC: 1.26471 (Simulation time: 0 hr 3 min 3 sec) 
Heartbeat CPU  0 instructions:   74000003 cycles:   58511801 heartbeat IPC: 1.26391 cumulative IPC: 1.26470 (Simulation time: 0 hr 3 min 6 sec) 
Heartbeat CPU  0 instructions:   75000001 cycles:   59303074 heartbeat IPC: 1.26378 cumulative IPC: 1.26469 (Simulation time: 0 hr 3 min 8 sec) 
Heartbeat CPU  0 instructions:   76000000 cycles:   60094526 heartbeat IPC: 1.26350 cumulative IPC: 1.26467 (Simulation time: 0 hr 3 min 11 sec) 
Heartbeat CPU  0 instructions:   77000002 cycles:   60885733 heartbeat IPC: 1.26389 cumulative IPC: 1.26466 (Simulation time: 0 hr 3 min 13 sec) 
Heartbeat CPU  0 instructions:   78000001 cycles:   61677062 heartbeat IPC: 1.26370 cumulative IPC: 1.26465 (Simulation time: 0 hr 3 min 16 sec) 
Heartbeat CPU  0 instructions:   79000000 cycles:   62468296 heartbeat IPC: 1.26385 cumulative IPC: 1.26464 (Simulation time: 0 hr 3 min 18 sec) 
Heartbeat CPU  0 instructions:   80000000 cycles:   63259689 heartbeat IPC: 1.26359 cumulative IPC: 1.26463 (Simulation time: 0 hr 3 min 21 sec) 
Heartbeat CPU  0 instructions:   81000000 cycles:   64050957 heartbeat IPC: 1.26379 cumulative IPC: 1.26462 (Simulation time: 0 hr 3 min 24 sec) 
Heartbeat CPU  0 instructions:   82000002 cycles:   64842208 heartbeat IPC: 1.26382 cumulative IPC: 1.26461 (Simulation time: 0 hr 3 min 26 sec) 
Heartbeat CPU  0 instructions:   83000000 cycles:   65633455 heartbeat IPC: 1.26383 cumulative IPC: 1.26460 (Simulation time: 0 hr 3 min 29 sec) 
Heartbeat CPU  0 instructions:   84000000 cycles:   66424772 heartbeat IPC: 1.26372 cumulative IPC: 1.26459 (Simulation time: 0 hr 3 min 31 sec) 
Heartbeat CPU  0 instructions:   85000000 cycles:   67216165 heartbeat IPC: 1.26359 cumulative IPC: 1.26458 (Simulation time: 0 hr 3 min 34 sec) 
Heartbeat CPU  0 instructions:   86000002 cycles:   68007449 heartbeat IPC: 1.26377 cumulative IPC: 1.26457 (Simulation time: 0 hr 3 min 36 sec) 
Heartbeat CPU  0 instructions:   87000000 cycles:   68798762 heartbeat IPC: 1.26372 cumulative IPC: 1.26456 (Simulation time: 0 hr 3 min 39 sec) 
Heartbeat CPU  0 instructions:   88000000 cycles:   69589904 heartbeat IPC: 1.26400 cumulative IPC: 1.26455 (Simulation time: 0 hr 3 min 41 sec) 
Heartbeat CPU  0 instructions:   89000000 cycles:   70381296 heartbeat IPC: 1.26360 cumulative IPC: 1.26454 (Simulation time: 0 hr 3 min 44 sec) 
Heartbeat CPU  0 instructions:   90000003 cycles:   71172477 heartbeat IPC: 1.26394 cumulative IPC: 1.26453 (Simulation time: 0 hr 3 min 46 sec) 
Heartbeat CPU  0 instructions:   91000000 cycles:   71963631 heartbeat IPC: 1.26397 cumulative IPC: 1.26453 (Simulation time: 0 hr 3 min 49 sec) 
Heartbeat CPU  0 instructions:   92000000 cycles:   72754917 heartbeat IPC: 1.26377 cumulative IPC: 1.26452 (Simulation time: 0 hr 3 min 51 sec) 
Heartbeat CPU  0 instructions:   93000001 cycles:   73546064 heartbeat IPC: 1.26399 cumulative IPC: 1.26451 (Simulation time: 0 hr 3 min 54 sec) 
Heartbeat CPU  0 instructions:   94000001 cycles:   74337547 heartbeat IPC: 1.26345 cumulative IPC: 1.26450 (Simulation time: 0 hr 3 min 56 sec) 
Heartbeat CPU  0 instructions:   95000000 cycles:   75128772 heartbeat IPC: 1.26386 cumulative IPC: 1.26450 (Simulation time: 0 hr 3 min 59 sec) 
Heartbeat CPU  0 instructions:   96000000 cycles:   75920060 heartbeat IPC: 1.26376 cumulative IPC: 1.26449 (Simulation time: 0 hr 4 min 1 sec) 
Heartbeat CPU  0 instructions:   97000003 cycles:   76711494 heartbeat IPC: 1.26353 cumulative IPC: 1.26448 (Simulation time: 0 hr 4 min 4 sec) 
Heartbeat CPU  0 instructions:   98000003 cycles:   77502597 heartbeat IPC: 1.26406 cumulative IPC: 1.26447 (Simulation time: 0 hr 4 min 6 sec) 
Heartbeat CPU  0 instructions:   99000003 cycles:   78293906 heartbeat IPC: 1.26373 cumulative IPC: 1.26447 (Simulation time: 0 hr 4 min 9 sec) 
Heartbeat CPU  0 instructions:  100000000 cycles:   79085149 heartbeat IPC: 1.26383 cumulative IPC: 1.26446 (Simulation time: 0 hr 4 min 11 sec) 

Warmup complete CPU  0 instructions:  100000001 cycles:   79085150 (Simulation time: 0 hr 4 min 11 sec) 

Heartbeat CPU  0 instructions:  101000001 cycles:   80853762 heartbeat IPC: 0.56542 cumulative IPC: 0.56542 (Simulation time: 0 hr 4 min 14 sec) 
Heartbeat CPU  0 instructions:  102000002 cycles:   82616680 heartbeat IPC: 0.56724 cumulative IPC: 0.56633 (Simulation time: 0 hr 4 min 17 sec) 
Heartbeat CPU  0 instructions:  103000003 cycles:   84381471 heartbeat IPC: 0.56664 cumulative IPC: 0.56643 (Simulation time: 0 hr 4 min 21 sec) 
Heartbeat CPU  0 instructions:  104000000 cycles:   86154737 heartbeat IPC: 0.56393 cumulative IPC: 0.56580 (Simulation time: 0 hr 4 min 24 sec) 
Heartbeat CPU  0 instructions:  105000001 cycles:   87938342 heartbeat IPC: 0.56066 cumulative IPC: 0.56477 (Simulation time: 0 hr 4 min 27 sec) 
Heartbeat CPU  0 instructions:  106000002 cycles:   89715077 heartbeat IPC: 0.56283 cumulative IPC: 0.56444 (Simulation time: 0 hr 4 min 30 sec) 
Heartbeat CPU  0 instructions:  107000000 cycles:   91496578 heartbeat IPC: 0.56132 cumulative IPC: 0.56400 (Simulation time: 0 hr 4 min 33 sec) 
Heartbeat CPU  0 instructions:  108000000 cycles:   93273794 heartbeat IPC: 0.56268 cumulative IPC: 0.56383 (Simulation time: 0 hr 4 min 36 sec) 
Heartbeat CPU  0 instructions:  109000000 cycles:   95035384 heartbeat IPC: 0.56767 cumulative IPC: 0.56425 (Simulation time: 0 hr 4 min 39 sec) 
Heartbeat CPU  0 instructions:  110000002 cycles:   96810026 heartbeat IPC: 0.56350 cumulative IPC: 0.56418 (Simulation time: 0 hr 4 min 43 sec) 
Heartbeat CPU  0 instructions:  111000001 cycles:   98585296 heartbeat IPC: 0.56329 cumulative IPC: 0.56410 (Simulation time: 0 hr 4 min 46 sec) 
Heartbeat CPU  0 instructions:  112000000 cycles:  100359314 heartbeat IPC: 0.56369 cumulative IPC: 0.56406 (Simulation time: 0 hr 4 min 49 sec) 
Heartbeat CPU  0 instructions:  113000000 cycles:  102133594 heartbeat IPC: 0.56361 cumulative IPC: 0.56403 (Simulation time: 0 hr 4 min 52 sec) 
Heartbeat CPU  0 instructions:  114000002 cycles:  103905055 heartbeat IPC: 0.56451 cumulative IPC: 0.56406 (Simulation time: 0 hr 4 min 55 sec) 
Heartbeat CPU  0 instructions:  115000000 cycles:  105677168 heartbeat IPC: 0.56430 cumulative IPC: 0.56408 (Simulation time: 0 hr 4 min 58 sec) 
Heartbeat CPU  0 instructions:  116000000 cycles:  107452530 heartbeat IPC: 0.56327 cumulative IPC: 0.56403 (Simulation time: 0 hr 5 min 1 sec) 
Heartbeat CPU  0 instructions:  117000001 cycles:  109217425 heartbeat IPC: 0.56661 cumulative IPC: 0.56418 (Simulation time: 0 hr 5 min 5 sec) 
Heartbeat CPU  0 instructions:  118000000 cycles:  110998513 heartbeat IPC: 0.56145 cumulative IPC: 0.56403 (Simulation time: 0 hr 5 min 8 sec) 
Heartbeat CPU  0 instructions:  119000000 cycles:  112769102 heartbeat IPC: 0.56478 cumulative IPC: 0.56407 (Simulation time: 0 hr 5 min 11 sec) 
Heartbeat CPU  0 instructions:  120000000 cycles:  114539380 heartbeat IPC: 0.56488 cumulative IPC: 0.56411 (Simulation time: 0 hr 5 min 14 sec) 
Heartbeat CPU  0 instructions:  121000003 cycles:  116307945 heartbeat IPC: 0.56543 cumulative IPC: 0.56417 (Simulation time: 0 hr 5 min 17 sec) 
Heartbeat CPU  0 instructions:  122000001 cycles:  118079153 heartbeat IPC: 0.56459 cumulative IPC: 0.56419 (Simulation time: 0 hr 5 min 20 sec) 
Heartbeat CPU  0 instructions:  123000000 cycles:  119850501 heartbeat IPC: 0.56454 cumulative IPC: 0.56420 (Simulation time: 0 hr 5 min 23 sec) 
Heartbeat CPU  0 instructions:  124000000 cycles:  121647551 heartbeat IPC: 0.55647 cumulative IPC: 0.56388 (Simulation time: 0 hr 5 min 26 sec) 
Heartbeat CPU  0 instructions:  125000001 cycles:  123411405 heartbeat IPC: 0.56694 cumulative IPC: 0.56400 (Simulation time: 0 hr 5 min 30 sec) 
Heartbeat CPU  0 instructions:  126000001 cycles:  125184878 heartbeat IPC: 0.56387 cumulative IPC: 0.56399 (Simulation time: 0 hr 5 min 33 sec) 
Heartbeat CPU  0 instructions:  127000003 cycles:  126970347 heartbeat IPC: 0.56008 cumulative IPC: 0.56385 (Simulation time: 0 hr 5 min 36 sec) 
Heartbeat CPU  0 instructions:  128000000 cycles:  128745570 heartbeat IPC: 0.56331 cumulative IPC: 0.56383 (Simulation time: 0 hr 5 min 39 sec) 
Heartbeat CPU  0 instructions:  129000003 cycles:  130508280 heartbeat IPC: 0.56731 cumulative IPC: 0.56395 (Simulation time: 0 hr 5 min 42 sec) 
Heartbeat CPU  0 instructions:  130000001 cycles:  132276235 heartbeat IPC: 0.56562 cumulative IPC: 0.56400 (Simulation time: 0 hr 5 min 45 sec) 
Heartbeat CPU  0 instructions:  131000002 cycles:  134042320 heartbeat IPC: 0.56622 cumulative IPC: 0.56408 (Simulation time: 0 hr 5 min 48 sec) 
Heartbeat CPU  0 instructions:  132000000 cycles:  135822675 heartbeat IPC: 0.56168 cumulative IPC: 0.56400 (Simulation time: 0 hr 5 min 52 sec) 
Heartbeat CPU  0 instructions:  133000000 cycles:  137588610 heartbeat IPC: 0.56627 cumulative IPC: 0.56407 (Simulation time: 0 hr 5 min 55 sec) 
Heartbeat CPU  0 instructions:  134000002 cycles:  139369720 heartbeat IPC: 0.56145 cumulative IPC: 0.56399 (Simulation time: 0 hr 5 min 58 sec) 
Heartbeat CPU  0 instructions:  135000003 cycles:  141157350 heartbeat IPC: 0.55940 cumulative IPC: 0.56386 (Simulation time: 0 hr 6 min 1 sec) 
Heartbeat CPU  0 instructions:  136000000 cycles:  142931476 heartbeat IPC: 0.56366 cumulative IPC: 0.56385 (Simulation time: 0 hr 6 min 4 sec) 
Heartbeat CPU  0 instructions:  137000000 cycles:  144711091 heartbeat IPC: 0.56192 cumulative IPC: 0.56380 (Simulation time: 0 hr 6 min 7 sec) 
Heartbeat CPU  0 instructions:  138000000 cycles:  146481097 heartbeat IPC: 0.56497 cumulative IPC: 0.56383 (Simulation time: 0 hr 6 min 10 sec) 
Heartbeat CPU  0 instructions:  139000002 cycles:  148265504 heartbeat IPC: 0.56041 cumulative IPC: 0.56374 (Simulation time: 0 hr 6 min 14 sec) 
Heartbeat CPU  0 instructions:  140000000 cycles:  150037038 heartbeat IPC: 0.56448 cumulative IPC: 0.56376 (Simulation time: 0 hr 6 min 17 sec) 
Heartbeat CPU  0 instructions:  141000002 cycles:  151807051 heartbeat IPC: 0.56497 cumulative IPC: 0.56379 (Simulation time: 0 hr 6 min 20 sec) 
Heartbeat CPU  0 instructions:  142000000 cycles:  153580325 heartbeat IPC: 0.56393 cumulative IPC: 0.56379 (Simulation time: 0 hr 6 min 23 sec) 
Heartbeat CPU  0 instructions:  143000003 cycles:  155357370 heartbeat IPC: 0.56273 cumulative IPC: 0.56377 (Simulation time: 0 hr 6 min 26 sec) 
Heartbeat CPU  0 instructions:  144000000 cycles:  157140482 heartbeat IPC: 0.56082 cumulative IPC: 0.56370 (Simulation time: 0 hr 6 min 29 sec) 
Heartbeat CPU  0 instructions:  145000003 cycles:  158909929 heartbeat IPC: 0.56515 cumulative IPC: 0.56373 (Simulation time: 0 hr 6 min 32 sec) 
Heartbeat CPU  0 instructions:  146000001 cycles:  160675601 heartbeat IPC: 0.56636 cumulative IPC: 0.56379 (Simulation time: 0 hr 6 min 35 sec) 
Heartbeat CPU  0 instructions:  147000003 cycles:  162453262 heartbeat IPC: 0.56254 cumulative IPC: 0.56376 (Simulation time: 0 hr 6 min 39 sec) 
Heartbeat CPU  0 instructions:  148000000 cycles:  164223623 heartbeat IPC: 0.56485 cumulative IPC: 0.56379 (Simulation time: 0 hr 6 min 42 sec) 
Heartbeat CPU  0 instructions:  149000003 cycles:  165983146 heartbeat IPC: 0.56834 cumulative IPC: 0.56388 (Simulation time: 0 hr 6 min 45 sec) 
Heartbeat CPU  0 instructions:  150000001 cycles:  167734662 heartbeat IPC: 0.57093 cumulative IPC: 0.56402 (Simulation time: 0 hr 6 min 48 sec) 
Heartbeat CPU  0 instructions:  151000003 cycles:  169481027 heartbeat IPC: 0.57262 cumulative IPC: 0.56419 (Simulation time: 0 hr 6 min 51 sec) 
Heartbeat CPU  0 instructions:  152000000 cycles:  171233046 heartbeat IPC: 0.57077 cumulative IPC: 0.56431 (Simulation time: 0 hr 6 min 54 sec) 
Heartbeat CPU  0 instructions:  153000003 cycles:  172979509 heartbeat IPC: 0.57259 cumulative IPC: 0.56446 (Simulation time: 0 hr 6 min 57 sec) 
Heartbeat CPU  0 instructions:  154000001 cycles:  174726459 heartbeat IPC: 0.57243 cumulative IPC: 0.56461 (Simulation time: 0 hr 7 min 0 sec) 
Heartbeat CPU  0 instructions:  155000001 cycles:  176484263 heartbeat IPC: 0.56889 cumulative IPC: 0.56469 (Simulation time: 0 hr 7 min 4 sec) 
Heartbeat CPU  0 instructions:  156000000 cycles:  178230853 heartbeat IPC: 0.57254 cumulative IPC: 0.56483 (Simulation time: 0 hr 7 min 7 sec) 
Heartbeat CPU  0 instructions:  157000001 cycles:  179987497 heartbeat IPC: 0.56927 cumulative IPC: 0.56490 (Simulation time: 0 hr 7 min 10 sec) 
Heartbeat CPU  0 instructions:  158000003 cycles:  181745272 heartbeat IPC: 0.56890 cumulative IPC: 0.56497 (Simulation time: 0 hr 7 min 13 sec) 
Heartbeat CPU  0 instructions:  159000003 cycles:  183503636 heartbeat IPC: 0.56871 cumulative IPC: 0.56503 (Simulation time: 0 hr 7 min 16 sec) 
Heartbeat CPU  0 instructions:  160000000 cycles:  185257915 heartbeat IPC: 0.57003 cumulative IPC: 0.56512 (Simulation time: 0 hr 7 min 19 sec) 
Heartbeat CPU  0 instructions:  161000002 cycles:  187014101 heartbeat IPC: 0.56942 cumulative IPC: 0.56519 (Simulation time: 0 hr 7 min 22 sec) 
Heartbeat CPU  0 instructions:  162000000 cycles:  188760682 heartbeat IPC: 0.57255 cumulative IPC: 0.56530 (Simulation time: 0 hr 7 min 26 sec) 
Heartbeat CPU  0 instructions:  163000000 cycles:  190506049 heartbeat IPC: 0.57295 cumulative IPC: 0.56542 (Simulation time: 0 hr 7 min 29 sec) 
Heartbeat CPU  0 instructions:  164000000 cycles:  192263100 heartbeat IPC: 0.56914 cumulative IPC: 0.56548 (Simulation time: 0 hr 7 min 32 sec) 
Heartbeat CPU  0 instructions:  165000002 cycles:  194012489 heartbeat IPC: 0.57163 cumulative IPC: 0.56557 (Simulation time: 0 hr 7 min 35 sec) 
Heartbeat CPU  0 instructions:  166000003 cycles:  195758152 heartbeat IPC: 0.57285 cumulative IPC: 0.56568 (Simulation time: 0 hr 7 min 38 sec) 
Heartbeat CPU  0 instructions:  167000003 cycles:  197507711 heartbeat IPC: 0.57157 cumulative IPC: 0.56577 (Simulation time: 0 hr 7 min 41 sec) 
Heartbeat CPU  0 instructions:  168000000 cycles:  199259729 heartbeat IPC: 0.57077 cumulative IPC: 0.56584 (Simulation time: 0 hr 7 min 44 sec) 
Heartbeat CPU  0 instructions:  169000001 cycles:  201014059 heartbeat IPC: 0.57002 cumulative IPC: 0.56590 (Simulation time: 0 hr 7 min 47 sec) 
Heartbeat CPU  0 instructions:  170000000 cycles:  202766277 heartbeat IPC: 0.57070 cumulative IPC: 0.56597 (Simulation time: 0 hr 7 min 51 sec) 
Heartbeat CPU  0 instructions:  171000003 cycles:  204527735 heartbeat IPC: 0.56771 cumulative IPC: 0.56600 (Simulation time: 0 hr 7 min 54 sec) 
Heartbeat CPU  0 instructions:  172000000 cycles:  206280046 heartbeat IPC: 0.57067 cumulative IPC: 0.56606 (Simulation time: 0 hr 7 min 57 sec) 
Heartbeat CPU  0 instructions:  173000000 cycles:  208034747 heartbeat IPC: 0.56990 cumulative IPC: 0.56611 (Simulation time: 0 hr 8 min 0 sec) 
Heartbeat CPU  0 instructions:  174000001 cycles:  209782040 heartbeat IPC: 0.57231 cumulative IPC: 0.56620 (Simulation time: 0 hr 8 min 3 sec) 
Heartbeat CPU  0 instructions:  175000003 cycles:  211526647 heartbeat IPC: 0.57320 cumulative IPC: 0.56629 (Simulation time: 0 hr 8 min 6 sec) 
Heartbeat CPU  0 instructions:  176000000 cycles:  213277544 heartbeat IPC: 0.57113 cumulative IPC: 0.56635 (Simulation time: 0 hr 8 min 9 sec) 
Heartbeat CPU  0 instructions:  177000003 cycles:  215026129 heartbeat IPC: 0.57189 cumulative IPC: 0.56642 (Simulation time: 0 hr 8 min 12 sec) 
Heartbeat CPU  0 instructions:  178000001 cycles:  216774525 heartbeat IPC: 0.57195 cumulative IPC: 0.56649 (Simulation time: 0 hr 8 min 16 sec) 
Heartbeat CPU  0 instructions:  179000000 cycles:  218522565 heartbeat IPC: 0.57207 cumulative IPC: 0.56656 (Simulation time: 0 hr 8 min 19 sec) 
Heartbeat CPU  0 instructions:  180000000 cycles:  220286508 heartbeat IPC: 0.56691 cumulative IPC: 0.56657 (Simulation time: 0 hr 8 min 22 sec) 
Heartbeat CPU  0 instructions:  181000000 cycles:  222036618 heartbeat IPC: 0.57139 cumulative IPC: 0.56663 (Simulation time: 0 hr 8 min 25 sec) 
Heartbeat CPU  0 instructions:  182000001 cycles:  223794604 heartbeat IPC: 0.56883 cumulative IPC: 0.56665 (Simulation time: 0 hr 8 min 28 sec) 
Heartbeat CPU  0 instructions:  183000002 cycles:  225550470 heartbeat IPC: 0.56952 cumulative IPC: 0.56669 (Simulation time: 0 hr 8 min 31 sec) 
Heartbeat CPU  0 instructions:  184000000 cycles:  227296604 heartbeat IPC: 0.57269 cumulative IPC: 0.56676 (Simulation time: 0 hr 8 min 34 sec) 
Heartbeat CPU  0 instructions:  185000001 cycles:  229045877 heartbeat IPC: 0.57167 cumulative IPC: 0.56682 (Simulation time: 0 hr 8 min 38 sec) 
Heartbeat CPU  0 instructions:  186000000 cycles:  230801550 heartbeat IPC: 0.56958 cumulative IPC: 0.56685 (Simulation time: 0 hr 8 min 41 sec) 
Heartbeat CPU  0 instructions:  187000000 cycles:  232436932 heartbeat IPC: 0.61148 cumulative IPC: 0.56732 (Simulation time: 0 hr 8 min 44 sec) 
Heartbeat CPU  0 instructions:  188000000 cycles:  233911936 heartbeat IPC: 0.67796 cumulative IPC: 0.56838 (Simulation time: 0 hr 8 min 47 sec) 
Heartbeat CPU  0 instructions:  189000002 cycles:  235379159 heartbeat IPC: 0.68156 cumulative IPC: 0.56944 (Simulation time: 0 hr 8 min 50 sec) 
Heartbeat CPU  0 instructions:  190000003 cycles:  236866383 heartbeat IPC: 0.67239 cumulative IPC: 0.57041 (Simulation time: 0 hr 8 min 53 sec) 
Heartbeat CPU  0 instructions:  191000000 cycles:  238343782 heartbeat IPC: 0.67686 cumulative IPC: 0.57140 (Simulation time: 0 hr 8 min 56 sec) 
Heartbeat CPU  0 instructions:  192000000 cycles:  239816105 heartbeat IPC: 0.67920 cumulative IPC: 0.57239 (Simulation time: 0 hr 8 min 59 sec) 
Heartbeat CPU  0 instructions:  193000001 cycles:  241299578 heartbeat IPC: 0.67409 cumulative IPC: 0.57332 (Simulation time: 0 hr 9 min 2 sec) 
Heartbeat CPU  0 instructions:  194000000 cycles:  242781365 heartbeat IPC: 0.67486 cumulative IPC: 0.57423 (Simulation time: 0 hr 9 min 5 sec) 
Heartbeat CPU  0 instructions:  195000000 cycles:  244261167 heartbeat IPC: 0.67577 cumulative IPC: 0.57514 (Simulation time: 0 hr 9 min 8 sec) 
Heartbeat CPU  0 instructions:  196000000 cycles:  245753364 heartbeat IPC: 0.67015 cumulative IPC: 0.57599 (Simulation time: 0 hr 9 min 11 sec) 
Heartbeat CPU  0 instructions:  197000000 cycles:  247210287 heartbeat IPC: 0.68638 cumulative IPC: 0.57695 (Simulation time: 0 hr 9 min 14 sec) 
Heartbeat CPU  0 instructions:  198000003 cycles:  248692780 heartbeat IPC: 0.67454 cumulative IPC: 0.57780 (Simulation time: 0 hr 9 min 17 sec) 
Heartbeat CPU  0 instructions:  199000001 cycles:  250185424 heartbeat IPC: 0.66995 cumulative IPC: 0.57861 (Simulation time: 0 hr 9 min 20 sec) 
Heartbeat CPU  0 instructions:  200000000 cycles:  251658547 heartbeat IPC: 0.67883 cumulative IPC: 0.57946 (Simulation time: 0 hr 9 min 23 sec) 
Heartbeat CPU  0 instructions:  201000003 cycles:  253145344 heartbeat IPC: 0.67259 cumulative IPC: 0.58026 (Simulation time: 0 hr 9 min 26 sec) 
Heartbeat CPU  0 instructions:  202000000 cycles:  254648912 heartbeat IPC: 0.66508 cumulative IPC: 0.58099 (Simulation time: 0 hr 9 min 29 sec) 
Heartbeat CPU  0 instructions:  203000001 cycles:  256131595 heartbeat IPC: 0.67445 cumulative IPC: 0.58177 (Simulation time: 0 hr 9 min 32 sec) 
Heartbeat CPU  0 instructions:  204000000 cycles:  257615846 heartbeat IPC: 0.67374 cumulative IPC: 0.58253 (Simulation time: 0 hr 9 min 35 sec) 
Heartbeat CPU  0 instructions:  205000000 cycles:  259110741 heartbeat IPC: 0.66894 cumulative IPC: 0.58325 (Simulation time: 0 hr 9 min 39 sec) 
Heartbeat CPU  0 instructions:  206000002 cycles:  260571995 heartbeat IPC: 0.68435 cumulative IPC: 0.58406 (Simulation time: 0 hr 9 min 42 sec) 
Heartbeat CPU  0 instructions:  207000000 cycles:  262062670 heartbeat IPC: 0.67084 cumulative IPC: 0.58477 (Simulation time: 0 hr 9 min 45 sec) 
Heartbeat CPU  0 instructions:  208000000 cycles:  263552301 heartbeat IPC: 0.67131 cumulative IPC: 0.58547 (Simulation time: 0 hr 9 min 48 sec) 
Heartbeat CPU  0 instructions:  209000003 cycles:  265021172 heartbeat IPC: 0.68080 cumulative IPC: 0.58622 (Simulation time: 0 hr 9 min 51 sec) 
Heartbeat CPU  0 instructions:  210000000 cycles:  266528067 heartbeat IPC: 0.66361 cumulative IPC: 0.58685 (Simulation time: 0 hr 9 min 54 sec) 
Heartbeat CPU  0 instructions:  211000003 cycles:  268004885 heartbeat IPC: 0.67713 cumulative IPC: 0.58755 (Simulation time: 0 hr 9 min 57 sec) 
Heartbeat CPU  0 instructions:  212000000 cycles:  269498454 heartbeat IPC: 0.66954 cumulative IPC: 0.58819 (Simulation time: 0 hr 10 min 0 sec) 
Heartbeat CPU  0 instructions:  213000003 cycles:  270998873 heartbeat IPC: 0.66648 cumulative IPC: 0.58881 (Simulation time: 0 hr 10 min 3 sec) 
Heartbeat CPU  0 instructions:  214000000 cycles:  272491741 heartbeat IPC: 0.66985 cumulative IPC: 0.58943 (Simulation time: 0 hr 10 min 6 sec) 
Heartbeat CPU  0 instructions:  215000002 cycles:  273954063 heartbeat IPC: 0.68385 cumulative IPC: 0.59014 (Simulation time: 0 hr 10 min 9 sec) 
Heartbeat CPU  0 instructions:  216000000 cycles:  275445331 heartbeat IPC: 0.67057 cumulative IPC: 0.59075 (Simulation time: 0 hr 10 min 12 sec) 
Heartbeat CPU  0 instructions:  217000001 cycles:  276912928 heartbeat IPC: 0.68139 cumulative IPC: 0.59142 (Simulation time: 0 hr 10 min 15 sec) 
Heartbeat CPU  0 instructions:  218000000 cycles:  278382960 heartbeat IPC: 0.68026 cumulative IPC: 0.59208 (Simulation time: 0 hr 10 min 18 sec) 
Heartbeat CPU  0 instructions:  219000000 cycles:  279872667 heartbeat IPC: 0.67127 cumulative IPC: 0.59267 (Simulation time: 0 hr 10 min 21 sec) 
Heartbeat CPU  0 instructions:  220000000 cycles:  281340833 heartbeat IPC: 0.68112 cumulative IPC: 0.59331 (Simulation time: 0 hr 10 min 24 sec) 
Heartbeat CPU  0 instructions:  221000000 cycles:  282826147 heartbeat IPC: 0.67326 cumulative IPC: 0.59389 (Simulation time: 0 hr 10 min 27 sec) 
Heartbeat CPU  0 instructions:  222000000 cycles:  284311528 heartbeat IPC: 0.67323 cumulative IPC: 0.59447 (Simulation time: 0 hr 10 min 30 sec) 
Heartbeat CPU  0 instructions:  223000003 cycles:  285773716 heartbeat IPC: 0.68391 cumulative IPC: 0.59510 (Simulation time: 0 hr 10 min 34 sec) 
Heartbeat CPU  0 instructions:  224000000 cycles:  287285995 heartbeat IPC: 0.66125 cumulative IPC: 0.59558 (Simulation time: 0 hr 10 min 37 sec) 
Heartbeat CPU  0 instructions:  225000001 cycles:  288770250 heartbeat IPC: 0.67374 cumulative IPC: 0.59613 (Simulation time: 0 hr 10 min 40 sec) 
Heartbeat CPU  0 instructions:  226000002 cycles:  290248156 heartbeat IPC: 0.67663 cumulative IPC: 0.59670 (Simulation time: 0 hr 10 min 43 sec) 
Heartbeat CPU  0 instructions:  227000003 cycles:  291736669 heartbeat IPC: 0.67181 cumulative IPC: 0.59722 (Simulation time: 0 hr 10 min 46 sec) 
Heartbeat CPU  0 instructions:  228000000 cycles:  293220916 heartbeat IPC: 0.67374 cumulative IPC: 0.59775 (Simulation time: 0 hr 10 min 49 sec) 
Heartbeat CPU  0 instructions:  229000000 cycles:  294687742 heartbeat IPC: 0.68174 cumulative IPC: 0.59832 (Simulation time: 0 hr 10 min 52 sec) 
Heartbeat CPU  0 instructions:  230000003 cycles:  296169999 heartbeat IPC: 0.67465 cumulative IPC: 0.59884 (Simulation time: 0 hr 10 min 55 sec) 
Heartbeat CPU  0 instructions:  231000000 cycles:  297634423 heartbeat IPC: 0.68286 cumulative IPC: 0.59941 (Simulation time: 0 hr 10 min 58 sec) 
Heartbeat CPU  0 instructions:  232000000 cycles:  299109331 heartbeat IPC: 0.67801 cumulative IPC: 0.59993 (Simulation time: 0 hr 11 min 1 sec) 
Heartbeat CPU  0 instructions:  233000003 cycles:  300602088 heartbeat IPC: 0.66990 cumulative IPC: 0.60041 (Simulation time: 0 hr 11 min 4 sec) 
Heartbeat CPU  0 instructions:  234000002 cycles:  302060671 heartbeat IPC: 0.68560 cumulative IPC: 0.60096 (Simulation time: 0 hr 11 min 7 sec) 
Heartbeat CPU  0 instructions:  235000001 cycles:  303546493 heartbeat IPC: 0.67303 cumulative IPC: 0.60144 (Simulation time: 0 hr 11 min 10 sec) 
Heartbeat CPU  0 instructions:  236000000 cycles:  305048177 heartbeat IPC: 0.66592 cumulative IPC: 0.60187 (Simulation time: 0 hr 11 min 13 sec) 
Heartbeat CPU  0 instructions:  237000002 cycles:  306516199 heartbeat IPC: 0.68119 cumulative IPC: 0.60238 (Simulation time: 0 hr 11 min 16 sec) 
Heartbeat CPU  0 instructions:  238000000 cycles:  308030536 heartbeat IPC: 0.66035 cumulative IPC: 0.60276 (Simulation time: 0 hr 11 min 19 sec) 
Heartbeat CPU  0 instructions:  239000000 cycles:  309544957 heartbeat IPC: 0.66032 cumulative IPC: 0.60314 (Simulation time: 0 hr 11 min 22 sec) 
Heartbeat CPU  0 instructions:  240000000 cycles:  310999206 heartbeat IPC: 0.68764 cumulative IPC: 0.60367 (Simulation time: 0 hr 11 min 26 sec) 
Heartbeat CPU  0 instructions:  241000002 cycles:  312488647 heartbeat IPC: 0.67139 cumulative IPC: 0.60410 (Simulation time: 0 hr 11 min 29 sec) 
Heartbeat CPU  0 instructions:  242000000 cycles:  313976581 heartbeat IPC: 0.67207 cumulative IPC: 0.60453 (Simulation time: 0 hr 11 min 32 sec) 
Heartbeat CPU  0 instructions:  243000003 cycles:  315434047 heartbeat IPC: 0.68612 cumulative IPC: 0.60504 (Simulation time: 0 hr 11 min 35 sec) 
Heartbeat CPU  0 instructions:  244000000 cycles:  316914364 heartbeat IPC: 0.67553 cumulative IPC: 0.60548 (Simulation time: 0 hr 11 min 38 sec) 
Heartbeat CPU  0 instructions:  245000002 cycles:  318377445 heartbeat IPC: 0.68349 cumulative IPC: 0.60595 (Simulation time: 0 hr 11 min 41 sec) 
Heartbeat CPU  0 instructions:  246000003 cycles:  319845279 heartbeat IPC: 0.68128 cumulative IPC: 0.60641 (Simulation time: 0 hr 11 min 44 sec) 
Heartbeat CPU  0 instructions:  247000002 cycles:  321328596 heartbeat IPC: 0.67416 cumulative IPC: 0.60683 (Simulation time: 0 hr 11 min 47 sec) 
Heartbeat CPU  0 instructions:  248000000 cycles:  322787203 heartbeat IPC: 0.68558 cumulative IPC: 0.60730 (Simulation time: 0 hr 11 min 50 sec) 
Heartbeat CPU  0 instructions:  249000002 cycles:  324290555 heartbeat IPC: 0.66518 cumulative IPC: 0.60765 (Simulation time: 0 hr 11 min 53 sec) 
Heartbeat CPU  0 instructions:  250000003 cycles:  325782050 heartbeat IPC: 0.67047 cumulative IPC: 0.60803 (Simulation time: 0 hr 11 min 56 sec) 
Heartbeat CPU  0 instructions:  251000001 cycles:  327259980 heartbeat IPC: 0.67662 cumulative IPC: 0.60844 (Simulation time: 0 hr 11 min 59 sec) 
Heartbeat CPU  0 instructions:  252000000 cycles:  328740825 heartbeat IPC: 0.67529 cumulative IPC: 0.60884 (Simulation time: 0 hr 12 min 2 sec) 
Heartbeat CPU  0 instructions:  253000000 cycles:  330255714 heartbeat IPC: 0.66011 cumulative IPC: 0.60915 (Simulation time: 0 hr 12 min 5 sec) 
Heartbeat CPU  0 instructions:  254000003 cycles:  331707584 heartbeat IPC: 0.68877 cumulative IPC: 0.60961 (Simulation time: 0 hr 12 min 8 sec) 
Heartbeat CPU  0 instructions:  255000000 cycles:  333182690 heartbeat IPC: 0.67792 cumulative IPC: 0.61000 (Simulation time: 0 hr 12 min 11 sec) 
Heartbeat CPU  0 instructions:  256000000 cycles:  334682034 heartbeat IPC: 0.66696 cumulative IPC: 0.61034 (Simulation time: 0 hr 12 min 14 sec) 
Heartbeat CPU  0 instructions:  257000003 cycles:  336150863 heartbeat IPC: 0.68082 cumulative IPC: 0.61074 (Simulation time: 0 hr 12 min 17 sec) 
Heartbeat CPU  0 instructions:  258000003 cycles:  337629087 heartbeat IPC: 0.67649 cumulative IPC: 0.61111 (Simulation time: 0 hr 12 min 20 sec) 
Heartbeat CPU  0 instructions:  259000002 cycles:  339092910 heartbeat IPC: 0.68314 cumulative IPC: 0.61152 (Simulation time: 0 hr 12 min 23 sec) 
Heartbeat CPU  0 instructions:  260000000 cycles:  340555708 heartbeat IPC: 0.68362 cumulative IPC: 0.61192 (Simulation time: 0 hr 12 min 26 sec) 
Heartbeat CPU  0 instructions:  261000000 cycles:  342048150 heartbeat IPC: 0.67004 cumulative IPC: 0.61225 (Simulation time: 0 hr 12 min 30 sec) 
Heartbeat CPU  0 instructions:  262000001 cycles:  343523253 heartbeat IPC: 0.67792 cumulative IPC: 0.61262 (Simulation time: 0 hr 12 min 33 sec) 
Heartbeat CPU  0 instructions:  263000002 cycles:  345018845 heartbeat IPC: 0.66863 cumulative IPC: 0.61293 (Simulation time: 0 hr 12 min 36 sec) 
Heartbeat CPU  0 instructions:  264000000 cycles:  346524099 heartbeat IPC: 0.66434 cumulative IPC: 0.61322 (Simulation time: 0 hr 12 min 39 sec) 
Heartbeat CPU  0 instructions:  265000003 cycles:  348009918 heartbeat IPC: 0.67303 cumulative IPC: 0.61355 (Simulation time: 0 hr 12 min 42 sec) 
Heartbeat CPU  0 instructions:  266000002 cycles:  349489714 heartbeat IPC: 0.67577 cumulative IPC: 0.61389 (Simulation time: 0 hr 12 min 45 sec) 
Heartbeat CPU  0 instructions:  267000003 cycles:  351012257 heartbeat IPC: 0.65680 cumulative IPC: 0.61414 (Simulation time: 0 hr 12 min 48 sec) 
Heartbeat CPU  0 instructions:  268000000 cycles:  352470136 heartbeat IPC: 0.68593 cumulative IPC: 0.61452 (Simulation time: 0 hr 12 min 51 sec) 
Heartbeat CPU  0 instructions:  269000002 cycles:  353942729 heartbeat IPC: 0.67908 cumulative IPC: 0.61486 (Simulation time: 0 hr 12 min 54 sec) 
Heartbeat CPU  0 instructions:  270000001 cycles:  355439272 heartbeat IPC: 0.66821 cumulative IPC: 0.61515 (Simulation time: 0 hr 12 min 57 sec) 
Heartbeat CPU  0 instructions:  271000000 cycles:  356885783 heartbeat IPC: 0.69132 cumulative IPC: 0.61555 (Simulation time: 0 hr 13 min 0 sec) 
Heartbeat CPU  0 instructions:  272000000 cycles:  358363632 heartbeat IPC: 0.67666 cumulative IPC: 0.61587 (Simulation time: 0 hr 13 min 3 sec) 
Heartbeat CPU  0 instructions:  273000001 cycles:  359853967 heartbeat IPC: 0.67099 cumulative IPC: 0.61617 (Simulation time: 0 hr 13 min 6 sec) 
Heartbeat CPU  0 instructions:  274000000 cycles:  361328186 heartbeat IPC: 0.67832 cumulative IPC: 0.61649 (Simulation time: 0 hr 13 min 9 sec) 
Heartbeat CPU  0 instructions:  275000002 cycles:  362824107 heartbeat IPC: 0.66849 cumulative IPC: 0.61676 (Simulation time: 0 hr 13 min 12 sec) 
Heartbeat CPU  0 instructions:  276000000 cycles:  364302148 heartbeat IPC: 0.67657 cumulative IPC: 0.61707 (Simulation time: 0 hr 13 min 15 sec) 
Heartbeat CPU  0 instructions:  277000001 cycles:  365786283 heartbeat IPC: 0.67379 cumulative IPC: 0.61737 (Simulation time: 0 hr 13 min 18 sec) 
Heartbeat CPU  0 instructions:  278000003 cycles:  367283307 heartbeat IPC: 0.66799 cumulative IPC: 0.61763 (Simulation time: 0 hr 13 min 21 sec) 
Heartbeat CPU  0 instructions:  279000002 cycles:  368749074 heartbeat IPC: 0.68224 cumulative IPC: 0.61796 (Simulation time: 0 hr 13 min 24 sec) 
Heartbeat CPU  0 instructions:  280000000 cycles:  370213277 heartbeat IPC: 0.68296 cumulative IPC: 0.61828 (Simulation time: 0 hr 13 min 27 sec) 
Heartbeat CPU  0 instructions:  281000001 cycles:  371716735 heartbeat IPC: 0.66513 cumulative IPC: 0.61853 (Simulation time: 0 hr 13 min 30 sec) 
Heartbeat CPU  0 instructions:  282000002 cycles:  373182444 heartbeat IPC: 0.68226 cumulative IPC: 0.61884 (Simulation time: 0 hr 13 min 34 sec) 
Heartbeat CPU  0 instructions:  283000001 cycles:  374655671 heartbeat IPC: 0.67878 cumulative IPC: 0.61914 (Simulation time: 0 hr 13 min 37 sec) 
Heartbeat CPU  0 instructions:  284000000 cycles:  376148575 heartbeat IPC: 0.66983 cumulative IPC: 0.61940 (Simulation time: 0 hr 13 min 40 sec) 
Heartbeat CPU  0 instructions:  285000001 cycles:  377611428 heartbeat IPC: 0.68360 cumulative IPC: 0.61971 (Simulation time: 0 hr 13 min 43 sec) 
Heartbeat CPU  0 instructions:  286000002 cycles:  379096001 heartbeat IPC: 0.67360 cumulative IPC: 0.61998 (Simulation time: 0 hr 13 min 46 sec) 
Heartbeat CPU  0 instructions:  287000000 cycles:  380583486 heartbeat IPC: 0.67227 cumulative IPC: 0.62024 (Simulation time: 0 hr 13 min 49 sec) 
Heartbeat CPU  0 instructions:  288000000 cycles:  382057155 heartbeat IPC: 0.67858 cumulative IPC: 0.62052 (Simulation time: 0 hr 13 min 52 sec) 
Heartbeat CPU  0 instructions:  289000003 cycles:  383528517 heartbeat IPC: 0.67964 cumulative IPC: 0.62081 (Simulation time: 0 hr 13 min 55 sec) 
Heartbeat CPU  0 instructions:  290000000 cycles:  385017896 heartbeat IPC: 0.67142 cumulative IPC: 0.62105 (Simulation time: 0 hr 13 min 58 sec) 
Heartbeat CPU  0 instructions:  291000000 cycles:  386479491 heartbeat IPC: 0.68418 cumulative IPC: 0.62135 (Simulation time: 0 hr 14 min 1 sec) 
Heartbeat CPU  0 instructions:  292000000 cycles:  387999482 heartbeat IPC: 0.65790 cumulative IPC: 0.62153 (Simulation time: 0 hr 14 min 4 sec) 
Heartbeat CPU  0 instructions:  293000003 cycles:  389490200 heartbeat IPC: 0.67082 cumulative IPC: 0.62177 (Simulation time: 0 hr 14 min 7 sec) 
Heartbeat CPU  0 instructions:  294000000 cycles:  390949321 heartbeat IPC: 0.68534 cumulative IPC: 0.62207 (Simulation time: 0 hr 14 min 10 sec) 
Heartbeat CPU  0 instructions:  295000001 cycles:  392454816 heartbeat IPC: 0.66423 cumulative IPC: 0.62227 (Simulation time: 0 hr 14 min 13 sec) 
Heartbeat CPU  0 instructions:  296000000 cycles:  393925121 heartbeat IPC: 0.68013 cumulative IPC: 0.62254 (Simulation time: 0 hr 14 min 16 sec) 
Heartbeat CPU  0 instructions:  297000003 cycles:  395392232 heartbeat IPC: 0.68161 cumulative IPC: 0.62281 (Simulation time: 0 hr 14 min 19 sec) 
Heartbeat CPU  0 instructions:  298000000 cycles:  396885932 heartbeat IPC: 0.66948 cumulative IPC: 0.62303 (Simulation time: 0 hr 14 min 23 sec) 
Heartbeat CPU  0 instructions:  299000001 cycles:  398369514 heartbeat IPC: 0.67404 cumulative IPC: 0.62327 (Simulation time: 0 hr 14 min 26 sec) 
Heartbeat CPU  0 instructions:  300000000 cycles:  399848785 heartbeat IPC: 0.67601 cumulative IPC: 0.62351 (Simulation time: 0 hr 14 min 29 sec) 
Heartbeat CPU  0 instructions:  301000002 cycles:  401349756 heartbeat IPC: 0.66624 cumulative IPC: 0.62371 (Simulation time: 0 hr 14 min 32 sec) 
Heartbeat CPU  0 instructions:  302000001 cycles:  402844176 heartbeat IPC: 0.66916 cumulative IPC: 0.62392 (Simulation time: 0 hr 14 min 35 sec) 
Heartbeat CPU  0 instructions:  303000002 cycles:  404319272 heartbeat IPC: 0.67792 cumulative IPC: 0.62417 (Simulation time: 0 hr 14 min 38 sec) 
Heartbeat CPU  0 instructions:  304000000 cycles:  405819339 heartbeat IPC: 0.66664 cumulative IPC: 0.62436 (Simulation time: 0 hr 14 min 41 sec) 
Heartbeat CPU  0 instructions:  305000001 cycles:  407274257 heartbeat IPC: 0.68732 cumulative IPC: 0.62464 (Simulation time: 0 hr 14 min 44 sec) 
Heartbeat CPU  0 instructions:  306000000 cycles:  408762057 heartbeat IPC: 0.67213 cumulative IPC: 0.62485 (Simulation time: 0 hr 14 min 47 sec) 
Heartbeat CPU  0 instructions:  307000000 cycles:  410203523 heartbeat IPC: 0.69374 cumulative IPC: 0.62515 (Simulation time: 0 hr 14 min 50 sec) 
Heartbeat CPU  0 instructions:  308000000 cycles:  411366265 heartbeat IPC: 0.86004 cumulative IPC: 0.62598 (Simulation time: 0 hr 14 min 53 sec) 
Heartbeat CPU  0 instructions:  309000002 cycles:  412529349 heartbeat IPC: 0.85978 cumulative IPC: 0.62679 (Simulation time: 0 hr 14 min 55 sec) 
Heartbeat CPU  0 instructions:  310000000 cycles:  413694298 heartbeat IPC: 0.85840 cumulative IPC: 0.62760 (Simulation time: 0 hr 14 min 58 sec) 
Heartbeat CPU  0 instructions:  311000002 cycles:  415112612 heartbeat IPC: 0.70506 cumulative IPC: 0.62792 (Simulation time: 0 hr 15 min 1 sec) 
Heartbeat CPU  0 instructions:  312000000 cycles:  416633708 heartbeat IPC: 0.65742 cumulative IPC: 0.62806 (Simulation time: 0 hr 15 min 4 sec) 
Heartbeat CPU  0 instructions:  313000003 cycles:  418075804 heartbeat IPC: 0.69344 cumulative IPC: 0.62834 (Simulation time: 0 hr 15 min 7 sec) 
Heartbeat CPU  0 instructions:  314000000 cycles:  419608221 heartbeat IPC: 0.65256 cumulative IPC: 0.62844 (Simulation time: 0 hr 15 min 10 sec) 
Heartbeat CPU  0 instructions:  315000003 cycles:  421079690 heartbeat IPC: 0.67959 cumulative IPC: 0.62867 (Simulation time: 0 hr 15 min 13 sec) 
Heartbeat CPU  0 instructions:  316000000 cycles:  422562829 heartbeat IPC: 0.67424 cumulative IPC: 0.62886 (Simulation time: 0 hr 15 min 16 sec) 
Heartbeat CPU  0 instructions:  317000001 cycles:  424055187 heartbeat IPC: 0.67008 cumulative IPC: 0.62904 (Simulation time: 0 hr 15 min 19 sec) 
Heartbeat CPU  0 instructions:  318000000 cycles:  425529924 heartbeat IPC: 0.67809 cumulative IPC: 0.62925 (Simulation time: 0 hr 15 min 22 sec) 
Heartbeat CPU  0 instructions:  319000000 cycles:  427025965 heartbeat IPC: 0.66843 cumulative IPC: 0.62942 (Simulation time: 0 hr 15 min 26 sec) 
Heartbeat CPU  0 instructions:  320000000 cycles:  428506719 heartbeat IPC: 0.67533 cumulative IPC: 0.62961 (Simulation time: 0 hr 15 min 29 sec) 
Heartbeat CPU  0 instructions:  321000000 cycles:  429994672 heartbeat IPC: 0.67206 cumulative IPC: 0.62979 (Simulation time: 0 hr 15 min 32 sec) 
Heartbeat CPU  0 instructions:  322000003 cycles:  431487667 heartbeat IPC: 0.66980 cumulative IPC: 0.62996 (Simulation time: 0 hr 15 min 35 sec) 
Heartbeat CPU  0 instructions:  323000003 cycles:  432948856 heartbeat IPC: 0.68437 cumulative IPC: 0.63019 (Simulation time: 0 hr 15 min 38 sec) 
Heartbeat CPU  0 instructions:  324000000 cycles:  434463296 heartbeat IPC: 0.66031 cumulative IPC: 0.63031 (Simulation time: 0 hr 15 min 41 sec) 
Heartbeat CPU  0 instructions:  325000003 cycles:  435925937 heartbeat IPC: 0.68370 cumulative IPC: 0.63053 (Simulation time: 0 hr 15 min 44 sec) 
Heartbeat CPU  0 instructions:  326000000 cycles:  437427702 heartbeat IPC: 0.66588 cumulative IPC: 0.63068 (Simulation time: 0 hr 15 min 47 sec) 
Heartbeat CPU  0 instructions:  327000001 cycles:  438943812 heartbeat IPC: 0.65958 cumulative IPC: 0.63080 (Simulation time: 0 hr 15 min 50 sec) 
Heartbeat CPU  0 instructions:  328000000 cycles:  440405505 heartbeat IPC: 0.68414 cumulative IPC: 0.63102 (Simulation time: 0 hr 15 min 53 sec) 
Heartbeat CPU  0 instructions:  329000002 cycles:  441905754 heartbeat IPC: 0.66656 cumulative IPC: 0.63117 (Simulation time: 0 hr 15 min 56 sec) 
Heartbeat CPU  0 instructions:  330000003 cycles:  443377026 heartbeat IPC: 0.67968 cumulative IPC: 0.63136 (Simulation time: 0 hr 15 min 59 sec) 
Heartbeat CPU  0 instructions:  331000003 cycles:  444860165 heartbeat IPC: 0.67425 cumulative IPC: 0.63154 (Simulation time: 0 hr 16 min 2 sec) 
Heartbeat CPU  0 instructions:  332000000 cycles:  446344453 heartbeat IPC: 0.67372 cumulative IPC: 0.63171 (Simulation time: 0 hr 16 min 5 sec) 
Heartbeat CPU  0 instructions:  333000003 cycles:  447819863 heartbeat IPC: 0.67778 cumulative IPC: 0.63189 (Simulation time: 0 hr 16 min 8 sec) 
Heartbeat CPU  0 instructions:  334000000 cycles:  449315874 heartbeat IPC: 0.66844 cumulative IPC: 0.63204 (Simulation time: 0 hr 16 min 11 sec) 
Heartbeat CPU  0 instructions:  335000002 cycles:  450790165 heartbeat IPC: 0.67829 cumulative IPC: 0.63222 (Simulation time: 0 hr 16 min 14 sec) 
Heartbeat CPU  0 instructions:  336000000 cycles:  452285635 heartbeat IPC: 0.66868 cumulative IPC: 0.63237 (Simulation time: 0 hr 16 min 17 sec) 
Heartbeat CPU  0 instructions:  337000000 cycles:  453762369 heartbeat IPC: 0.67717 cumulative IPC: 0.63254 (Simulation time: 0 hr 16 min 20 sec) 
Heartbeat CPU  0 instructions:  338000002 cycles:  455234915 heartbeat IPC: 0.67910 cumulative IPC: 0.63273 (Simulation time: 0 hr 16 min 24 sec) 
Heartbeat CPU  0 instructions:  339000001 cycles:  456750565 heartbeat IPC: 0.65978 cumulative IPC: 0.63284 (Simulation time: 0 hr 16 min 27 sec) 
Heartbeat CPU  0 instructions:  340000000 cycles:  458215697 heartbeat IPC: 0.68253 cumulative IPC: 0.63303 (Simulation time: 0 hr 16 min 30 sec) 
Heartbeat CPU  0 instructions:  341000002 cycles:  459702311 heartbeat IPC: 0.67267 cumulative IPC: 0.63318 (Simulation time: 0 hr 16 min 33 sec) 
Heartbeat CPU  0 instructions:  342000003 cycles:  461189451 heartbeat IPC: 0.67243 cumulative IPC: 0.63333 (Simulation time: 0 hr 16 min 36 sec) 
Heartbeat CPU  0 instructions:  343000000 cycles:  462660473 heartbeat IPC: 0.67980 cumulative IPC: 0.63351 (Simulation time: 0 hr 16 min 39 sec) 
Heartbeat CPU  0 instructions:  344000000 cycles:  464154255 heartbeat IPC: 0.66944 cumulative IPC: 0.63365 (Simulation time: 0 hr 16 min 42 sec) 
Heartbeat CPU  0 instructions:  345000003 cycles:  465644622 heartbeat IPC: 0.67098 cumulative IPC: 0.63380 (Simulation time: 0 hr 16 min 45 sec) 
Heartbeat CPU  0 instructions:  346000000 cycles:  467128497 heartbeat IPC: 0.67391 cumulative IPC: 0.63395 (Simulation time: 0 hr 16 min 48 sec) 
Heartbeat CPU  0 instructions:  347000003 cycles:  468611696 heartbeat IPC: 0.67422 cumulative IPC: 0.63410 (Simulation time: 0 hr 16 min 51 sec) 
Heartbeat CPU  0 instructions:  348000000 cycles:  470078576 heartbeat IPC: 0.68172 cumulative IPC: 0.63428 (Simulation time: 0 hr 16 min 54 sec) 
Heartbeat CPU  0 instructions:  349000000 cycles:  471572543 heartbeat IPC: 0.66936 cumulative IPC: 0.63442 (Simulation time: 0 hr 16 min 57 sec) 
Heartbeat CPU  0 instructions:  350000003 cycles:  473034529 heartbeat IPC: 0.68400 cumulative IPC: 0.63460 (Simulation time: 0 hr 17 min 0 sec) 
Heartbeat CPU  0 instructions:  351000001 cycles:  474541180 heartbeat IPC: 0.66372 cumulative IPC: 0.63471 (Simulation time: 0 hr 17 min 3 sec) 
Heartbeat CPU  0 instructions:  352000000 cycles:  476030748 heartbeat IPC: 0.67133 cumulative IPC: 0.63485 (Simulation time: 0 hr 17 min 6 sec) 
Heartbeat CPU  0 instructions:  353000003 cycles:  477510916 heartbeat IPC: 0.67560 cumulative IPC: 0.63500 (Simulation time: 0 hr 17 min 9 sec) 
Heartbeat CPU  0 instructions:  354000000 cycles:  479010415 heartbeat IPC: 0.66689 cumulative IPC: 0.63512 (Simulation time: 0 hr 17 min 12 sec) 
Heartbeat CPU  0 instructions:  355000000 cycles:  480503759 heartbeat IPC: 0.66964 cumulative IPC: 0.63525 (Simulation time: 0 hr 17 min 15 sec) 
Heartbeat CPU  0 instructions:  356000000 cycles:  481977308 heartbeat IPC: 0.67863 cumulative IPC: 0.63541 (Simulation time: 0 hr 17 min 19 sec) 
Heartbeat CPU  0 instructions:  357000002 cycles:  483481718 heartbeat IPC: 0.66471 cumulative IPC: 0.63551 (Simulation time: 0 hr 17 min 22 sec) 
Heartbeat CPU  0 instructions:  358000003 cycles:  484958049 heartbeat IPC: 0.67736 cumulative IPC: 0.63567 (Simulation time: 0 hr 17 min 25 sec) 
Heartbeat CPU  0 instructions:  359000000 cycles:  486468318 heartbeat IPC: 0.66213 cumulative IPC: 0.63577 (Simulation time: 0 hr 17 min 28 sec) 
Heartbeat CPU  0 instructions:  360000000 cycles:  487959880 heartbeat IPC: 0.67044 cumulative IPC: 0.63589 (Simulation time: 0 hr 17 min 31 sec) 
Heartbeat CPU  0 instructions:  361000002 cycles:  489433588 heartbeat IPC: 0.67856 cumulative IPC: 0.63604 (Simulation time: 0 hr 17 min 34 sec) 
Heartbeat CPU  0 instructions:  362000003 cycles:  490909171 heartbeat IPC: 0.67770 cumulative IPC: 0.63619 (Simulation time: 0 hr 17 min 37 sec) 
Heartbeat CPU  0 instructions:  363000003 cycles:  492390459 heartbeat IPC: 0.67509 cumulative IPC: 0.63633 (Simulation time: 0 hr 17 min 40 sec) 
Heartbeat CPU  0 instructions:  364000000 cycles:  493892326 heartbeat IPC: 0.66584 cumulative IPC: 0.63644 (Simulation time: 0 hr 17 min 43 sec) 
Heartbeat CPU  0 instructions:  365000003 cycles:  495353253 heartbeat IPC: 0.68450 cumulative IPC: 0.63661 (Simulation time: 0 hr 17 min 46 sec) 
Heartbeat CPU  0 instructions:  366000000 cycles:  496854567 heartbeat IPC: 0.66608 cumulative IPC: 0.63671 (Simulation time: 0 hr 17 min 49 sec) 
Heartbeat CPU  0 instructions:  367000001 cycles:  498350543 heartbeat IPC: 0.66846 cumulative IPC: 0.63683 (Simulation time: 0 hr 17 min 52 sec) 
Heartbeat CPU  0 instructions:  368000000 cycles:  499816369 heartbeat IPC: 0.68221 cumulative IPC: 0.63699 (Simulation time: 0 hr 17 min 55 sec) 
Heartbeat CPU  0 instructions:  369000003 cycles:  501311564 heartbeat IPC: 0.66881 cumulative IPC: 0.63710 (Simulation time: 0 hr 17 min 58 sec) 
Heartbeat CPU  0 instructions:  370000000 cycles:  502796369 heartbeat IPC: 0.67349 cumulative IPC: 0.63723 (Simulation time: 0 hr 18 min 1 sec) 
Heartbeat CPU  0 instructions:  371000000 cycles:  504289746 heartbeat IPC: 0.66962 cumulative IPC: 0.63734 (Simulation time: 0 hr 18 min 4 sec) 
Heartbeat CPU  0 instructions:  372000000 cycles:  505801842 heartbeat IPC: 0.66133 cumulative IPC: 0.63743 (Simulation time: 0 hr 18 min 7 sec) 
Heartbeat CPU  0 instructions:  373000000 cycles:  507269148 heartbeat IPC: 0.68152 cumulative IPC: 0.63758 (Simulation time: 0 hr 18 min 10 sec) 
Heartbeat CPU  0 instructions:  374000003 cycles:  508782859 heartbeat IPC: 0.66063 cumulative IPC: 0.63766 (Simulation time: 0 hr 18 min 14 sec) 
Heartbeat CPU  0 instructions:  375000002 cycles:  510231802 heartbeat IPC: 0.69016 cumulative IPC: 0.63783 (Simulation time: 0 hr 18 min 17 sec) 
Heartbeat CPU  0 instructions:  376000000 cycles:  511740421 heartbeat IPC: 0.66286 cumulative IPC: 0.63792 (Simulation time: 0 hr 18 min 20 sec) 
Heartbeat CPU  0 instructions:  377000003 cycles:  513201841 heartbeat IPC: 0.68427 cumulative IPC: 0.63808 (Simulation time: 0 hr 18 min 23 sec) 
Heartbeat CPU  0 instructions:  378000000 cycles:  514679504 heartbeat IPC: 0.67674 cumulative IPC: 0.63821 (Simulation time: 0 hr 18 min 26 sec) 
Heartbeat CPU  0 instructions:  379000001 cycles:  516163907 heartbeat IPC: 0.67367 cumulative IPC: 0.63833 (Simulation time: 0 hr 18 min 29 sec) 
Heartbeat CPU  0 instructions:  380000000 cycles:  517615799 heartbeat IPC: 0.68876 cumulative IPC: 0.63850 (Simulation time: 0 hr 18 min 32 sec) 
Heartbeat CPU  0 instructions:  381000002 cycles:  519104523 heartbeat IPC: 0.67172 cumulative IPC: 0.63861 (Simulation time: 0 hr 18 min 35 sec) 
Heartbeat CPU  0 instructions:  382000003 cycles:  520600940 heartbeat IPC: 0.66826 cumulative IPC: 0.63871 (Simulation time: 0 hr 18 min 38 sec) 
Heartbeat CPU  0 instructions:  383000000 cycles:  522076664 heartbeat IPC: 0.67763 cumulative IPC: 0.63884 (Simulation time: 0 hr 18 min 41 sec) 
Heartbeat CPU  0 instructions:  384000000 cycles:  523583189 heartbeat IPC: 0.66378 cumulative IPC: 0.63892 (Simulation time: 0 hr 18 min 44 sec) 
Heartbeat CPU  0 instructions:  385000003 cycles:  525035819 heartbeat IPC: 0.68841 cumulative IPC: 0.63908 (Simulation time: 0 hr 18 min 47 sec) 
Heartbeat CPU  0 instructions:  386000000 cycles:  526543038 heartbeat IPC: 0.66347 cumulative IPC: 0.63917 (Simulation time: 0 hr 18 min 50 sec) 
Heartbeat CPU  0 instructions:  387000002 cycles:  528004433 heartbeat IPC: 0.68428 cumulative IPC: 0.63931 (Simulation time: 0 hr 18 min 53 sec) 
Heartbeat CPU  0 instructions:  388000000 cycles:  529516141 heartbeat IPC: 0.66150 cumulative IPC: 0.63939 (Simulation time: 0 hr 18 min 56 sec) 
Heartbeat CPU  0 instructions:  389000000 cycles:  531009636 heartbeat IPC: 0.66957 cumulative IPC: 0.63949 (Simulation time: 0 hr 18 min 59 sec) 
Heartbeat CPU  0 instructions:  390000000 cycles:  532471138 heartbeat IPC: 0.68423 cumulative IPC: 0.63963 (Simulation time: 0 hr 19 min 2 sec) 
Heartbeat CPU  0 instructions:  391000003 cycles:  533964550 heartbeat IPC: 0.66961 cumulative IPC: 0.63973 (Simulation time: 0 hr 19 min 5 sec) 
Heartbeat CPU  0 instructions:  392000000 cycles:  535426483 heartbeat IPC: 0.68402 cumulative IPC: 0.63987 (Simulation time: 0 hr 19 min 8 sec) 
Heartbeat CPU  0 instructions:  393000000 cycles:  536902172 heartbeat IPC: 0.67765 cumulative IPC: 0.63999 (Simulation time: 0 hr 19 min 11 sec) 
Heartbeat CPU  0 instructions:  394000000 cycles:  538412706 heartbeat IPC: 0.66202 cumulative IPC: 0.64007 (Simulation time: 0 hr 19 min 15 sec) 
Heartbeat CPU  0 instructions:  395000000 cycles:  539860659 heartbeat IPC: 0.69063 cumulative IPC: 0.64022 (Simulation time: 0 hr 19 min 18 sec) 
Heartbeat CPU  0 instructions:  396000000 cycles:  541369804 heartbeat IPC: 0.66263 cumulative IPC: 0.64030 (Simulation time: 0 hr 19 min 21 sec) 
Heartbeat CPU  0 instructions:  397000000 cycles:  542855936 heartbeat IPC: 0.67289 cumulative IPC: 0.64040 (Simulation time: 0 hr 19 min 24 sec) 
Heartbeat CPU  0 instructions:  398000001 cycles:  544340435 heartbeat IPC: 0.67363 cumulative IPC: 0.64051 (Simulation time: 0 hr 19 min 27 sec) 
Heartbeat CPU  0 instructions:  399000002 cycles:  545844211 heartbeat IPC: 0.66499 cumulative IPC: 0.64059 (Simulation time: 0 hr 19 min 30 sec) 
Heartbeat CPU  0 instructions:  400000000 cycles:  547314990 heartbeat IPC: 0.67991 cumulative IPC: 0.64071 (Simulation time: 0 hr 19 min 33 sec) 
Heartbeat CPU  0 instructions:  401000002 cycles:  548829643 heartbeat IPC: 0.66022 cumulative IPC: 0.64077 (Simulation time: 0 hr 19 min 36 sec) 
Heartbeat CPU  0 instructions:  402000003 cycles:  550293947 heartbeat IPC: 0.68292 cumulative IPC: 0.64090 (Simulation time: 0 hr 19 min 39 sec) 
Heartbeat CPU  0 instructions:  403000000 cycles:  551795282 heartbeat IPC: 0.66607 cumulative IPC: 0.64098 (Simulation time: 0 hr 19 min 42 sec) 
Heartbeat CPU  0 instructions:  404000000 cycles:  553289163 heartbeat IPC: 0.66940 cumulative IPC: 0.64107 (Simulation time: 0 hr 19 min 45 sec) 
Heartbeat CPU  0 instructions:  405000003 cycles:  554758400 heartbeat IPC: 0.68063 cumulative IPC: 0.64120 (Simulation time: 0 hr 19 min 48 sec) 
Heartbeat CPU  0 instructions:  406000000 cycles:  556249734 heartbeat IPC: 0.67054 cumulative IPC: 0.64129 (Simulation time: 0 hr 19 min 51 sec) 
Heartbeat CPU  0 instructions:  407000001 cycles:  557722688 heartbeat IPC: 0.67891 cumulative IPC: 0.64140 (Simulation time: 0 hr 19 min 54 sec) 
Heartbeat CPU  0 instructions:  408000000 cycles:  559204779 heartbeat IPC: 0.67472 cumulative IPC: 0.64151 (Simulation time: 0 hr 19 min 57 sec) 
Heartbeat CPU  0 instructions:  409000002 cycles:  560721440 heartbeat IPC: 0.65934 cumulative IPC: 0.64156 (Simulation time: 0 hr 20 min 1 sec) 
Heartbeat CPU  0 instructions:  410000000 cycles:  562186202 heartbeat IPC: 0.68270 cumulative IPC: 0.64169 (Simulation time: 0 hr 20 min 4 sec) 
Heartbeat CPU  0 instructions:  411000001 cycles:  563688458 heartbeat IPC: 0.66567 cumulative IPC: 0.64176 (Simulation time: 0 hr 20 min 7 sec) 
Heartbeat CPU  0 instructions:  412000000 cycles:  565161546 heartbeat IPC: 0.67885 cumulative IPC: 0.64187 (Simulation time: 0 hr 20 min 10 sec) 
Heartbeat CPU  0 instructions:  413000002 cycles:  566678161 heartbeat IPC: 0.65936 cumulative IPC: 0.64193 (Simulation time: 0 hr 20 min 13 sec) 
Heartbeat CPU  0 instructions:  414000001 cycles:  568167035 heartbeat IPC: 0.67165 cumulative IPC: 0.64202 (Simulation time: 0 hr 20 min 16 sec) 
Heartbeat CPU  0 instructions:  415000002 cycles:  569662934 heartbeat IPC: 0.66849 cumulative IPC: 0.64210 (Simulation time: 0 hr 20 min 19 sec) 
Heartbeat CPU  0 instructions:  416000000 cycles:  571158769 heartbeat IPC: 0.66852 cumulative IPC: 0.64218 (Simulation time: 0 hr 20 min 22 sec) 
Heartbeat CPU  0 instructions:  417000003 cycles:  572620146 heartbeat IPC: 0.68429 cumulative IPC: 0.64231 (Simulation time: 0 hr 20 min 25 sec) 
Heartbeat CPU  0 instructions:  418000000 cycles:  574111688 heartbeat IPC: 0.67045 cumulative IPC: 0.64239 (Simulation time: 0 hr 20 min 28 sec) 
Heartbeat CPU  0 instructions:  419000001 cycles:  575600647 heartbeat IPC: 0.67161 cumulative IPC: 0.64248 (Simulation time: 0 hr 20 min 31 sec) 
Heartbeat CPU  0 instructions:  420000000 cycles:  577061511 heartbeat IPC: 0.68453 cumulative IPC: 0.64260 (Simulation time: 0 hr 20 min 34 sec) 
Heartbeat CPU  0 instructions:  421000000 cycles:  578563544 heartbeat IPC: 0.66576 cumulative IPC: 0.64267 (Simulation time: 0 hr 20 min 37 sec) 
Heartbeat CPU  0 instructions:  422000001 cycles:  580024694 heartbeat IPC: 0.68439 cumulative IPC: 0.64279 (Simulation time: 0 hr 20 min 40 sec) 
Heartbeat CPU  0 instructions:  423000003 cycles:  581504847 heartbeat IPC: 0.67561 cumulative IPC: 0.64289 (Simulation time: 0 hr 20 min 43 sec) 
Heartbeat CPU  0 instructions:  424000000 cycles:  582985026 heartbeat IPC: 0.67559 cumulative IPC: 0.64298 (Simulation time: 0 hr 20 min 46 sec) 
Heartbeat CPU  0 instructions:  425000001 cycles:  584476788 heartbeat IPC: 0.67035 cumulative IPC: 0.64307 (Simulation time: 0 hr 20 min 49 sec) 
Heartbeat CPU  0 instructions:  426000002 cycles:  585973248 heartbeat IPC: 0.66824 cumulative IPC: 0.64314 (Simulation time: 0 hr 20 min 52 sec) 
Heartbeat CPU  0 instructions:  427000000 cycles:  587445461 heartbeat IPC: 0.67925 cumulative IPC: 0.64324 (Simulation time: 0 hr 20 min 56 sec) 
Heartbeat CPU  0 instructions:  428000000 cycles:  588934467 heartbeat IPC: 0.67159 cumulative IPC: 0.64333 (Simulation time: 0 hr 20 min 59 sec) 
Heartbeat CPU  0 instructions:  429000000 cycles:  590406975 heartbeat IPC: 0.67911 cumulative IPC: 0.64343 (Simulation time: 0 hr 21 min 2 sec) 
Heartbeat CPU  0 instructions:  430000000 cycles:  591882021 heartbeat IPC: 0.67794 cumulative IPC: 0.64353 (Simulation time: 0 hr 21 min 5 sec) 
Heartbeat CPU  0 instructions:  431000002 cycles:  593377569 heartbeat IPC: 0.66865 cumulative IPC: 0.64360 (Simulation time: 0 hr 21 min 8 sec) 
Heartbeat CPU  0 instructions:  432000000 cycles:  594856236 heartbeat IPC: 0.67628 cumulative IPC: 0.64370 (Simulation time: 0 hr 21 min 11 sec) 
Heartbeat CPU  0 instructions:  433000001 cycles:  596347962 heartbeat IPC: 0.67037 cumulative IPC: 0.64377 (Simulation time: 0 hr 21 min 14 sec) 
Heartbeat CPU  0 instructions:  434000000 cycles:  597847953 heartbeat IPC: 0.66667 cumulative IPC: 0.64384 (Simulation time: 0 hr 21 min 17 sec) 
Heartbeat CPU  0 instructions:  435000003 cycles:  599326311 heartbeat IPC: 0.67643 cumulative IPC: 0.64393 (Simulation time: 0 hr 21 min 20 sec) 
Heartbeat CPU  0 instructions:  436000000 cycles:  600827889 heartbeat IPC: 0.66596 cumulative IPC: 0.64400 (Simulation time: 0 hr 21 min 23 sec) 
Heartbeat CPU  0 instructions:  437000002 cycles:  602308879 heartbeat IPC: 0.67523 cumulative IPC: 0.64408 (Simulation time: 0 hr 21 min 26 sec) 
Heartbeat CPU  0 instructions:  438000001 cycles:  603805484 heartbeat IPC: 0.66818 cumulative IPC: 0.64415 (Simulation time: 0 hr 21 min 29 sec) 
Heartbeat CPU  0 instructions:  439000000 cycles:  605286537 heartbeat IPC: 0.67519 cumulative IPC: 0.64424 (Simulation time: 0 hr 21 min 32 sec) 
Heartbeat CPU  0 instructions:  440000000 cycles:  606778045 heartbeat IPC: 0.67046 cumulative IPC: 0.64431 (Simulation time: 0 hr 21 min 35 sec) 
Heartbeat CPU  0 instructions:  441000001 cycles:  608294016 heartbeat IPC: 0.65964 cumulative IPC: 0.64436 (Simulation time: 0 hr 21 min 38 sec) 
Heartbeat CPU  0 instructions:  442000000 cycles:  609758134 heartbeat IPC: 0.68300 cumulative IPC: 0.64446 (Simulation time: 0 hr 21 min 42 sec) 
Heartbeat CPU  0 instructions:  443000000 cycles:  611235775 heartbeat IPC: 0.67675 cumulative IPC: 0.64455 (Simulation time: 0 hr 21 min 45 sec) 
Heartbeat CPU  0 instructions:  444000000 cycles:  612751456 heartbeat IPC: 0.65977 cumulative IPC: 0.64460 (Simulation time: 0 hr 21 min 48 sec) 
Heartbeat CPU  0 instructions:  445000002 cycles:  614243102 heartbeat IPC: 0.67040 cumulative IPC: 0.64467 (Simulation time: 0 hr 21 min 51 sec) 
Heartbeat CPU  0 instructions:  446000001 cycles:  615737893 heartbeat IPC: 0.66899 cumulative IPC: 0.64474 (Simulation time: 0 hr 21 min 54 sec) 
Heartbeat CPU  0 instructions:  447000003 cycles:  617214536 heartbeat IPC: 0.67721 cumulative IPC: 0.64483 (Simulation time: 0 hr 21 min 57 sec) 
Heartbeat CPU  0 instructions:  448000000 cycles:  618742660 heartbeat IPC: 0.65440 cumulative IPC: 0.64485 (Simulation time: 0 hr 22 min 0 sec) 
Heartbeat CPU  0 instructions:  449000000 cycles:  620237405 heartbeat IPC: 0.66901 cumulative IPC: 0.64492 (Simulation time: 0 hr 22 min 3 sec) 
Heartbeat CPU  0 instructions:  450000003 cycles:  621707340 heartbeat IPC: 0.68030 cumulative IPC: 0.64502 (Simulation time: 0 hr 22 min 6 sec) 
Heartbeat CPU  0 instructions:  451000000 cycles:  623222401 heartbeat IPC: 0.66004 cumulative IPC: 0.64506 (Simulation time: 0 hr 22 min 9 sec) 
Heartbeat CPU  0 instructions:  452000000 cycles:  624729788 heartbeat IPC: 0.66340 cumulative IPC: 0.64511 (Simulation time: 0 hr 22 min 12 sec) 
Heartbeat CPU  0 instructions:  453000001 cycles:  626216686 heartbeat IPC: 0.67254 cumulative IPC: 0.64518 (Simulation time: 0 hr 22 min 15 sec) 
Heartbeat CPU  0 instructions:  454000002 cycles:  627692143 heartbeat IPC: 0.67776 cumulative IPC: 0.64527 (Simulation time: 0 hr 22 min 18 sec) 
Heartbeat CPU  0 instructions:  455000000 cycles:  629165695 heartbeat IPC: 0.67863 cumulative IPC: 0.64536 (Simulation time: 0 hr 22 min 22 sec) 
Heartbeat CPU  0 instructions:  456000000 cycles:  630663888 heartbeat IPC: 0.66747 cumulative IPC: 0.64542 (Simulation time: 0 hr 22 min 25 sec) 
Heartbeat CPU  0 instructions:  457000002 cycles:  632129094 heartbeat IPC: 0.68250 cumulative IPC: 0.64552 (Simulation time: 0 hr 22 min 28 sec) 
Heartbeat CPU  0 instructions:  458000003 cycles:  633631497 heartbeat IPC: 0.66560 cumulative IPC: 0.64557 (Simulation time: 0 hr 22 min 31 sec) 
Heartbeat CPU  0 instructions:  459000001 cycles:  635109753 heartbeat IPC: 0.67647 cumulative IPC: 0.64565 (Simulation time: 0 hr 22 min 34 sec) 
Heartbeat CPU  0 instructions:  460000000 cycles:  636599401 heartbeat IPC: 0.67130 cumulative IPC: 0.64572 (Simulation time: 0 hr 22 min 37 sec) 
Heartbeat CPU  0 instructions:  461000002 cycles:  638096879 heartbeat IPC: 0.66779 cumulative IPC: 0.64578 (Simulation time: 0 hr 22 min 40 sec) 
Heartbeat CPU  0 instructions:  462000003 cycles:  639576583 heartbeat IPC: 0.67581 cumulative IPC: 0.64586 (Simulation time: 0 hr 22 min 43 sec) 
Heartbeat CPU  0 instructions:  463000002 cycles:  641088424 heartbeat IPC: 0.66144 cumulative IPC: 0.64590 (Simulation time: 0 hr 22 min 46 sec) 
Heartbeat CPU  0 instructions:  464000000 cycles:  642560645 heartbeat IPC: 0.67924 cumulative IPC: 0.64599 (Simulation time: 0 hr 22 min 49 sec) 
Heartbeat CPU  0 instructions:  465000001 cycles:  644038712 heartbeat IPC: 0.67656 cumulative IPC: 0.64607 (Simulation time: 0 hr 22 min 52 sec) 
Heartbeat CPU  0 instructions:  466000000 cycles:  645570465 heartbeat IPC: 0.65285 cumulative IPC: 0.64609 (Simulation time: 0 hr 22 min 55 sec) 
Heartbeat CPU  0 instructions:  467000001 cycles:  647051893 heartbeat IPC: 0.67503 cumulative IPC: 0.64616 (Simulation time: 0 hr 22 min 58 sec) 
Heartbeat CPU  0 instructions:  468000000 cycles:  648551656 heartbeat IPC: 0.66677 cumulative IPC: 0.64622 (Simulation time: 0 hr 23 min 2 sec) 
Heartbeat CPU  0 instructions:  469000002 cycles:  650026567 heartbeat IPC: 0.67801 cumulative IPC: 0.64630 (Simulation time: 0 hr 23 min 5 sec) 
Heartbeat CPU  0 instructions:  470000003 cycles:  651543890 heartbeat IPC: 0.65906 cumulative IPC: 0.64633 (Simulation time: 0 hr 23 min 8 sec) 
Heartbeat CPU  0 instructions:  471000002 cycles:  653069617 heartbeat IPC: 0.65542 cumulative IPC: 0.64636 (Simulation time: 0 hr 23 min 11 sec) 
Heartbeat CPU  0 instructions:  472000000 cycles:  654532045 heartbeat IPC: 0.68379 cumulative IPC: 0.64645 (Simulation time: 0 hr 23 min 14 sec) 
Heartbeat CPU  0 instructions:  473000001 cycles:  656036916 heartbeat IPC: 0.66451 cumulative IPC: 0.64650 (Simulation time: 0 hr 23 min 17 sec) 
Heartbeat CPU  0 instructions:  474000000 cycles:  657550685 heartbeat IPC: 0.66060 cumulative IPC: 0.64654 (Simulation time: 0 hr 23 min 20 sec) 
Heartbeat CPU  0 instructions:  475000001 cycles:  659031122 heartbeat IPC: 0.67548 cumulative IPC: 0.64661 (Simulation time: 0 hr 23 min 23 sec) 
Heartbeat CPU  0 instructions:  476000000 cycles:  660519286 heartbeat IPC: 0.67197 cumulative IPC: 0.64668 (Simulation time: 0 hr 23 min 26 sec) 
Heartbeat CPU  0 instructions:  477000003 cycles:  661982418 heartbeat IPC: 0.68347 cumulative IPC: 0.64677 (Simulation time: 0 hr 23 min 29 sec) 
Heartbeat CPU  0 instructions:  478000002 cycles:  663527042 heartbeat IPC: 0.64741 cumulative IPC: 0.64677 (Simulation time: 0 hr 23 min 32 sec) 
Heartbeat CPU  0 instructions:  479000003 cycles:  665005536 heartbeat IPC: 0.67636 cumulative IPC: 0.64685 (Simulation time: 0 hr 23 min 36 sec) 
Heartbeat CPU  0 instructions:  480000000 cycles:  666488933 heartbeat IPC: 0.67413 cumulative IPC: 0.64691 (Simulation time: 0 hr 23 min 39 sec) 
Heartbeat CPU  0 instructions:  481000000 cycles:  667988772 heartbeat IPC: 0.66674 cumulative IPC: 0.64696 (Simulation time: 0 hr 23 min 42 sec) 
Heartbeat CPU  0 instructions:  482000003 cycles:  669452690 heartbeat IPC: 0.68310 cumulative IPC: 0.64705 (Simulation time: 0 hr 23 min 45 sec) 
Heartbeat CPU  0 instructions:  483000000 cycles:  670958096 heartbeat IPC: 0.66427 cumulative IPC: 0.64710 (Simulation time: 0 hr 23 min 48 sec) 
Heartbeat CPU  0 instructions:  484000000 cycles:  672451817 heartbeat IPC: 0.66947 cumulative IPC: 0.64715 (Simulation time: 0 hr 23 min 51 sec) 
Heartbeat CPU  0 instructions:  485000001 cycles:  673950576 heartbeat IPC: 0.66722 cumulative IPC: 0.64721 (Simulation time: 0 hr 23 min 54 sec) 
Heartbeat CPU  0 instructions:  486000000 cycles:  675446000 heartbeat IPC: 0.66871 cumulative IPC: 0.64726 (Simulation time: 0 hr 23 min 57 sec) 
Heartbeat CPU  0 instructions:  487000001 cycles:  676908689 heartbeat IPC: 0.68367 cumulative IPC: 0.64735 (Simulation time: 0 hr 24 min 0 sec) 
Heartbeat CPU  0 instructions:  488000000 cycles:  678435739 heartbeat IPC: 0.65486 cumulative IPC: 0.64737 (Simulation time: 0 hr 24 min 3 sec) 
Heartbeat CPU  0 instructions:  489000002 cycles:  679940827 heartbeat IPC: 0.66441 cumulative IPC: 0.64741 (Simulation time: 0 hr 24 min 6 sec) 
Heartbeat CPU  0 instructions:  490000001 cycles:  681430808 heartbeat IPC: 0.67115 cumulative IPC: 0.64747 (Simulation time: 0 hr 24 min 9 sec) 
Heartbeat CPU  0 instructions:  491000001 cycles:  682933448 heartbeat IPC: 0.66550 cumulative IPC: 0.64751 (Simulation time: 0 hr 24 min 13 sec) 
Heartbeat CPU  0 instructions:  492000000 cycles:  684420661 heartbeat IPC: 0.67240 cumulative IPC: 0.64757 (Simulation time: 0 hr 24 min 16 sec) 
Heartbeat CPU  0 instructions:  493000001 cycles:  685944393 heartbeat IPC: 0.65628 cumulative IPC: 0.64760 (Simulation time: 0 hr 24 min 19 sec) 
Heartbeat CPU  0 instructions:  494000001 cycles:  687421177 heartbeat IPC: 0.67715 cumulative IPC: 0.64767 (Simulation time: 0 hr 24 min 22 sec) 
Heartbeat CPU  0 instructions:  495000000 cycles:  688910081 heartbeat IPC: 0.67163 cumulative IPC: 0.64773 (Simulation time: 0 hr 24 min 25 sec) 
Heartbeat CPU  0 instructions:  496000000 cycles:  690446771 heartbeat IPC: 0.65075 cumulative IPC: 0.64773 (Simulation time: 0 hr 24 min 28 sec) 
Heartbeat CPU  0 instructions:  497000002 cycles:  691927822 heartbeat IPC: 0.67520 cumulative IPC: 0.64780 (Simulation time: 0 hr 24 min 31 sec) 
Heartbeat CPU  0 instructions:  498000000 cycles:  693426592 heartbeat IPC: 0.66721 cumulative IPC: 0.64785 (Simulation time: 0 hr 24 min 34 sec) 
Heartbeat CPU  0 instructions:  499000001 cycles:  694905321 heartbeat IPC: 0.67626 cumulative IPC: 0.64792 (Simulation time: 0 hr 24 min 37 sec) 
Heartbeat CPU  0 instructions:  500000000 cycles:  696434049 heartbeat IPC: 0.65414 cumulative IPC: 0.64793 (Simulation time: 0 hr 24 min 40 sec) 
Heartbeat CPU  0 instructions:  501000000 cycles:  697930528 heartbeat IPC: 0.66824 cumulative IPC: 0.64798 (Simulation time: 0 hr 24 min 43 sec) 
Heartbeat CPU  0 instructions:  502000003 cycles:  699394077 heartbeat IPC: 0.68327 cumulative IPC: 0.64806 (Simulation time: 0 hr 24 min 46 sec) 
Heartbeat CPU  0 instructions:  503000003 cycles:  700888913 heartbeat IPC: 0.66897 cumulative IPC: 0.64811 (Simulation time: 0 hr 24 min 49 sec) 
Heartbeat CPU  0 instructions:  504000000 cycles:  702399695 heartbeat IPC: 0.66191 cumulative IPC: 0.64815 (Simulation time: 0 hr 24 min 53 sec) 
Heartbeat CPU  0 instructions:  505000001 cycles:  703885808 heartbeat IPC: 0.67290 cumulative IPC: 0.64821 (Simulation time: 0 hr 24 min 56 sec) 
Heartbeat CPU  0 instructions:  506000001 cycles:  705373823 heartbeat IPC: 0.67204 cumulative IPC: 0.64826 (Simulation time: 0 hr 24 min 59 sec) 
Heartbeat CPU  0 instructions:  507000003 cycles:  706843214 heartbeat IPC: 0.68056 cumulative IPC: 0.64834 (Simulation time: 0 hr 25 min 2 sec) 
Heartbeat CPU  0 instructions:  508000000 cycles:  708340070 heartbeat IPC: 0.66806 cumulative IPC: 0.64839 (Simulation time: 0 hr 25 min 5 sec) 
Heartbeat CPU  0 instructions:  509000000 cycles:  709817922 heartbeat IPC: 0.67666 cumulative IPC: 0.64845 (Simulation time: 0 hr 25 min 8 sec) 
Heartbeat CPU  0 instructions:  510000002 cycles:  711331085 heartbeat IPC: 0.66087 cumulative IPC: 0.64848 (Simulation time: 0 hr 25 min 11 sec) 
Heartbeat CPU  0 instructions:  511000003 cycles:  712857013 heartbeat IPC: 0.65534 cumulative IPC: 0.64850 (Simulation time: 0 hr 25 min 14 sec) 
Heartbeat CPU  0 instructions:  512000000 cycles:  714334024 heartbeat IPC: 0.67704 cumulative IPC: 0.64856 (Simulation time: 0 hr 25 min 17 sec) 
Heartbeat CPU  0 instructions:  513000001 cycles:  715823348 heartbeat IPC: 0.67145 cumulative IPC: 0.64862 (Simulation time: 0 hr 25 min 20 sec) 
Heartbeat CPU  0 instructions:  514000003 cycles:  717305900 heartbeat IPC: 0.67451 cumulative IPC: 0.64868 (Simulation time: 0 hr 25 min 23 sec) 
Heartbeat CPU  0 instructions:  515000002 cycles:  718841177 heartbeat IPC: 0.65135 cumulative IPC: 0.64868 (Simulation time: 0 hr 25 min 26 sec) 
Heartbeat CPU  0 instructions:  516000000 cycles:  720331199 heartbeat IPC: 0.67113 cumulative IPC: 0.64874 (Simulation time: 0 hr 25 min 29 sec) 
Heartbeat CPU  0 instructions:  517000001 cycles:  721805922 heartbeat IPC: 0.67809 cumulative IPC: 0.64880 (Simulation time: 0 hr 25 min 33 sec) 
Heartbeat CPU  0 instructions:  518000000 cycles:  723351479 heartbeat IPC: 0.64702 cumulative IPC: 0.64880 (Simulation time: 0 hr 25 min 36 sec) 
Heartbeat CPU  0 instructions:  519000003 cycles:  724861649 heartbeat IPC: 0.66218 cumulative IPC: 0.64883 (Simulation time: 0 hr 25 min 39 sec) 
Heartbeat CPU  0 instructions:  520000000 cycles:  726349313 heartbeat IPC: 0.67219 cumulative IPC: 0.64889 (Simulation time: 0 hr 25 min 42 sec) 
Heartbeat CPU  0 instructions:  521000000 cycles:  727856317 heartbeat IPC: 0.66357 cumulative IPC: 0.64892 (Simulation time: 0 hr 25 min 45 sec) 
Heartbeat CPU  0 instructions:  522000003 cycles:  729371997 heartbeat IPC: 0.65977 cumulative IPC: 0.64894 (Simulation time: 0 hr 25 min 48 sec) 
Heartbeat CPU  0 instructions:  523000002 cycles:  730896130 heartbeat IPC: 0.65611 cumulative IPC: 0.64896 (Simulation time: 0 hr 25 min 51 sec) 
Heartbeat CPU  0 instructions:  524000000 cycles:  732366001 heartbeat IPC: 0.68033 cumulative IPC: 0.64903 (Simulation time: 0 hr 25 min 54 sec) 
Heartbeat CPU  0 instructions:  525000001 cycles:  733856683 heartbeat IPC: 0.67083 cumulative IPC: 0.64908 (Simulation time: 0 hr 25 min 57 sec) 
Heartbeat CPU  0 instructions:  526000000 cycles:  735383467 heartbeat IPC: 0.65497 cumulative IPC: 0.64910 (Simulation time: 0 hr 26 min 0 sec) 
Heartbeat CPU  0 instructions:  527000002 cycles:  736862315 heartbeat IPC: 0.67620 cumulative IPC: 0.64916 (Simulation time: 0 hr 26 min 3 sec) 
Heartbeat CPU  0 instructions:  528000000 cycles:  738359223 heartbeat IPC: 0.66804 cumulative IPC: 0.64920 (Simulation time: 0 hr 26 min 6 sec) 
[...]
Heartbeat CPU  0 instructions:  535000003 cycles:  748750948 heartbeat IPC: 0.67073 cumulative IPC: 0.64958 (Simulation time: 0 hr 26 min 28 sec) 
Heartbeat CPU  0 instructions:  536000000 cycles:  750230758 heartbeat IPC: 0.67576 cumulative IPC: 0.64964 (Simulation time: 0 hr 26 min 31 sec) 
Heartbeat CPU  0 instructions:  537000001 cycles:  751726416 heartbeat IPC: 0.66860 cumulative IPC: 0.64968 (Simulation time: 0 hr 26 min 34 sec) 
Heartbeat CPU  0 instructions:  538000000 cycles:  753228117 heartbeat IPC: 0.66591 cumulative IPC: 0.64971 (Simulation time: 0 hr 26 min 37 sec) 
Heartbeat CPU  0 instructions:  539000000 cycles:  754612949 heartbeat IPC: 0.72211 cumulative IPC: 0.64986 (Simulation time: 0 hr 26 min 40 sec) 
Heartbeat CPU  0 instructions:  540000000 cycles:  755734299 heartbeat IPC: 0.89178 cumulative IPC: 0.65026 (Simulation time: 0 hr 26 min 43 sec) 
Heartbeat CPU  0 instructions:  541000002 cycles:  756855262 heartbeat IPC: 0.89209 cumulative IPC: 0.65066 (Simulation time: 0 hr 26 min 46 sec) 
Heartbeat CPU  0 instructions:  542000000 cycles:  757957502 heartbeat IPC: 0.90724 cumulative IPC: 0.65108 (Simulation time: 0 hr 26 min 48 sec) 
Heartbeat CPU  0 instructions:  543000002 cycles:  759414790 heartbeat IPC: 0.68621 cumulative IPC: 0.65115 (Simulation time: 0 hr 26 min 51 sec) 
Heartbeat CPU  0 instructions:  544000000 cycles:  760877372 heartbeat IPC: 0.68372 cumulative IPC: 0.65122 (Simulation time: 0 hr 26 min 54 sec) 
Heartbeat CPU  0 instructions:  545000002 cycles:  762337960 heartbeat IPC: 0.68466 cumulative IPC: 0.65130 (Simulation time: 0 hr 26 min 57 sec) 
Heartbeat CPU  0 instructions:  546000002 cycles:  763807910 heartbeat IPC: 0.68030 cumulative IPC: 0.65136 (Simulation time: 0 hr 27 min 0 sec) 
Heartbeat CPU  0 instructions:  547000000 cycles:  765285961 heartbeat IPC: 0.67657 cumulative IPC: 0.65141 (Simulation time: 0 hr 27 min 4 sec) 
Heartbeat CPU  0 instructions:  548000000 cycles:  766754561 heartbeat IPC: 0.68092 cumulative IPC: 0.65148 (Simulation time: 0 hr 27 min 7 sec) 
Heartbeat CPU  0 instructions:  549000002 cycles:  768251981 heartbeat IPC: 0.66782 cumulative IPC: 0.65151 (Simulation time: 0 hr 27 min 10 sec) 
Heartbeat CPU  0 instructions:  550000000 cycles:  769736486 heartbeat IPC: 0.67362 cumulative IPC: 0.65156 (Simulation time: 0 hr 27 min 13 sec) 
Heartbeat CPU  0 instructions:  551000000 cycles:  771203854 heartbeat IPC: 0.68149 cumulative IPC: 0.65162 (Simulation time: 0 hr 27 min 16 sec) 
Heartbeat CPU  0 instructions:  552000000 cycles:  772683957 heartbeat IPC: 0.67563 cumulative IPC: 0.65167 (Simulation time: 0 hr 27 min 19 sec) 
Heartbeat CPU  0 instructions:  553000003 cycles:  774154337 heartbeat IPC: 0.68010 cumulative IPC: 0.65173 (Simulation time: 0 hr 27 min 22 sec) 
Heartbeat CPU  0 instructions:  554000002 cycles:  775632832 heartbeat IPC: 0.67636 cumulative IPC: 0.65179 (Simulation time: 0 hr 27 min 25 sec) 
Heartbeat CPU  0 instructions:  555000000 cycles:  777110263 heartbeat IPC: 0.67685 cumulative IPC: 0.65184 (Simulation time: 0 hr 27 min 28 sec) 
Heartbeat CPU  0 instructions:  556000000 cycles:  778564096 heartbeat IPC: 0.68784 cumulative IPC: 0.65191 (Simulation time: 0 hr 27 min 31 sec) 
Heartbeat CPU  0 instructions:  557000001 cycles:  780036467 heartbeat IPC: 0.67918 cumulative IPC: 0.65197 (Simulation time: 0 hr 27 min 34 sec) 
Heartbeat CPU  0 instructions:  558000003 cycles:  781517696 heartbeat IPC: 0.67512 cumulative IPC: 0.65202 (Simulation time: 0 hr 27 min 37 sec) 
Heartbeat CPU  0 instructions:  559000000 cycles:  782975493 heartbeat IPC: 0.68596 cumulative IPC: 0.65209 (Simulation time: 0 hr 27 min 40 sec) 
Heartbeat CPU  0 instructions:  560000000 cycles:  784443949 heartbeat IPC: 0.68099 cumulative IPC: 0.65215 (Simulation time: 0 hr 27 min 43 sec) 
Heartbeat CPU  0 instructions:  561000000 cycles:  785901739 heartbeat IPC: 0.68597 cumulative IPC: 0.65222 (Simulation time: 0 hr 27 min 46 sec) 
Heartbeat CPU  0 instructions:  562000003 cycles:  787356563 heartbeat IPC: 0.68737 cumulative IPC: 0.65229 (Simulation time: 0 hr 27 min 49 sec) 
Heartbeat CPU  0 instructions:  563000003 cycles:  788818837 heartbeat IPC: 0.68387 cumulative IPC: 0.65236 (Simulation time: 0 hr 27 min 52 sec) 
Heartbeat CPU  0 instructions:  564000000 cycles:  790273733 heartbeat IPC: 0.68733 cumulative IPC: 0.65243 (Simulation time: 0 hr 27 min 56 sec) 
Heartbeat CPU  0 instructions:  565000000 cycles:  791731797 heartbeat IPC: 0.68584 cumulative IPC: 0.65250 (Simulation time: 0 hr 27 min 59 sec) 
Heartbeat CPU  0 instructions:  566000001 cycles:  793196046 heartbeat IPC: 0.68294 cumulative IPC: 0.65256 (Simulation time: 0 hr 28 min 2 sec) 
Heartbeat CPU  0 instructions:  567000000 cycles:  794658280 heartbeat IPC: 0.68388 cumulative IPC: 0.65262 (Simulation time: 0 hr 28 min 5 sec) 
Heartbeat CPU  0 instructions:  568000000 cycles:  796111291 heartbeat IPC: 0.68823 cumulative IPC: 0.65270 (Simulation time: 0 hr 28 min 8 sec) 
Heartbeat CPU  0 instructions:  569000003 cycles:  797576824 heartbeat IPC: 0.68235 cumulative IPC: 0.65276 (Simulation time: 0 hr 28 min 11 sec) 
Heartbeat CPU  0 instructions:  570000000 cycles:  799044450 heartbeat IPC: 0.68137 cumulative IPC: 0.65281 (Simulation time: 0 hr 28 min 14 sec) 
Heartbeat CPU  0 instructions:  571000000 cycles:  800510155 heartbeat IPC: 0.68227 cumulative IPC: 0.65287 (Simulation time: 0 hr 28 min 17 sec) 
Heartbeat CPU  0 instructions:  572000000 cycles:  801975732 heartbeat IPC: 0.68233 cumulative IPC: 0.65293 (Simulation time: 0 hr 28 min 20 sec) 
Heartbeat CPU  0 instructions:  573000000 cycles:  803435872 heartbeat IPC: 0.68487 cumulative IPC: 0.65300 (Simulation time: 0 hr 28 min 23 sec) 
Heartbeat CPU  0 instructions:  574000001 cycles:  804895103 heartbeat IPC: 0.68529 cumulative IPC: 0.65306 (Simulation time: 0 hr 28 min 26 sec) 
Heartbeat CPU  0 instructions:  575000001 cycles:  806372967 heartbeat IPC: 0.67665 cumulative IPC: 0.65311 (Simulation time: 0 hr 28 min 29 sec) 
Heartbeat CPU  0 instructions:  576000000 cycles:  807838912 heartbeat IPC: 0.68215 cumulative IPC: 0.65317 (Simulation time: 0 hr 28 min 32 sec) 
Heartbeat CPU  0 instructions:  577000001 cycles:  809299312 heartbeat IPC: 0.68474 cumulative IPC: 0.65323 (Simulation time: 0 hr 28 min 35 sec) 
Heartbeat CPU  0 instructions:  578000001 cycles:  810765175 heartbeat IPC: 0.68219 cumulative IPC: 0.65329 (Simulation time: 0 hr 28 min 38 sec) 
Heartbeat CPU  0 instructions:  579000000 cycles:  812240076 heartbeat IPC: 0.67801 cumulative IPC: 0.65334 (Simulation time: 0 hr 28 min 41 sec) 
Heartbeat CPU  0 instructions:  580000000 cycles:  813698759 heartbeat IPC: 0.68555 cumulative IPC: 0.65340 (Simulation time: 0 hr 28 min 44 sec) 
Heartbeat CPU  0 instructions:  581000002 cycles:  815153572 heartbeat IPC: 0.68737 cumulative IPC: 0.65347 (Simulation time: 0 hr 28 min 47 sec) 
Heartbeat CPU  0 instructions:  582000000 cycles:  816621727 heartbeat IPC: 0.68113 cumulative IPC: 0.65353 (Simulation time: 0 hr 28 min 50 sec) 
Heartbeat CPU  0 instructions:  583000000 cycles:  818082864 heartbeat IPC: 0.68440 cumulative IPC: 0.65359 (Simulation time: 0 hr 28 min 54 sec) 
Heartbeat CPU  0 instructions:  584000000 cycles:  819537419 heartbeat IPC: 0.68750 cumulative IPC: 0.65365 (Simulation time: 0 hr 28 min 57 sec) 
Heartbeat CPU  0 instructions:  585000003 cycles:  821002986 heartbeat IPC: 0.68233 cumulative IPC: 0.65371 (Simulation time: 0 hr 29 min 0 sec) 
Heartbeat CPU  0 instructions:  586000000 cycles:  822455007 heartbeat IPC: 0.68869 cumulative IPC: 0.65378 (Simulation time: 0 hr 29 min 3 sec) 
Heartbeat CPU  0 instructions:  587000001 cycles:  823906484 heartbeat IPC: 0.68895 cumulative IPC: 0.65385 (Simulation time: 0 hr 29 min 6 sec) 
Heartbeat CPU  0 instructions:  588000000 cycles:  825395463 heartbeat IPC: 0.67160 cumulative IPC: 0.65388 (Simulation time: 0 hr 29 min 9 sec) 
Heartbeat CPU  0 instructions:  589000000 cycles:  826846490 heartbeat IPC: 0.68917 cumulative IPC: 0.65395 (Simulation time: 0 hr 29 min 12 sec) 
Heartbeat CPU  0 instructions:  590000003 cycles:  828312893 heartbeat IPC: 0.68194 cumulative IPC: 0.65401 (Simulation time: 0 hr 29 min 15 sec) 
Heartbeat CPU  0 instructions:  591000002 cycles:  829784538 heartbeat IPC: 0.67951 cumulative IPC: 0.65406 (Simulation time: 0 hr 29 min 18 sec) 
Heartbeat CPU  0 instructions:  592000000 cycles:  831242527 heartbeat IPC: 0.68587 cumulative IPC: 0.65412 (Simulation time: 0 hr 29 min 21 sec) 
Heartbeat CPU  0 instructions:  593000001 cycles:  832708527 heartbeat IPC: 0.68213 cumulative IPC: 0.65417 (Simulation time: 0 hr 29 min 24 sec) 
Heartbeat CPU  0 instructions:  594000000 cycles:  834170592 heartbeat IPC: 0.68396 cumulative IPC: 0.65423 (Simulation time: 0 hr 29 min 27 sec) 
Heartbeat CPU  0 instructions:  595000000 cycles:  835623349 heartbeat IPC: 0.68835 cumulative IPC: 0.65430 (Simulation time: 0 hr 29 min 30 sec) 
Heartbeat CPU  0 instructions:  596000000 cycles:  837080603 heartbeat IPC: 0.68622 cumulative IPC: 0.65436 (Simulation time: 0 hr 29 min 33 sec) 
Heartbeat CPU  0 instructions:  597000003 cycles:  838546628 heartbeat IPC: 0.68212 cumulative IPC: 0.65441 (Simulation time: 0 hr 29 min 36 sec) 
Heartbeat CPU  0 instructions:  598000002 cycles:  840006306 heartbeat IPC: 0.68508 cumulative IPC: 0.65447 (Simulation time: 0 hr 29 min 39 sec) 
Heartbeat CPU  0 instructions:  599000003 cycles:  841471153 heartbeat IPC: 0.68267 cumulative IPC: 0.65452 (Simulation time: 0 hr 29 min 42 sec) 
Heartbeat CPU  0 instructions:  600000000 cycles:  842928166 heartbeat IPC: 0.68633 cumulative IPC: 0.65458 (Simulation time: 0 hr 29 min 46 sec) 
Finished CPU 0 instructions: 500000000 cycles: 763843024 cumulative IPC: 0.65458 (Simulation time: 0 hr 29 min 46 sec) 

ChampSim completed all CPUs

[ROI Statistics]
Core_0_instructions 500000000
Core_0_cycles 763843024
Core_0_IPC 0.65458

Core_0_branch_prediction_accuracy 99.58640
Core_0_branch_MPKI 0.02120
Core_0_average_ROB_occupancy_at_mispredict 244.42987

Core_0_L1D_total_access 288651712
Core_0_L1D_total_hit 284341739
Core_0_L1D_total_miss 4309973
Core_0_L1D_loads 257673215
Core_0_L1D_load_hit 253364151
Core_0_L1D_load_miss 4309064
Core_0_L1D_RFOs 30978497
Core_0_L1D_RFO_hit 30977588
Core_0_L1D_RFO_miss 909
Core_0_L1D_prefetches 0
Core_0_L1D_prefetch_hit 0
Core_0_L1D_prefetch_miss 0
Core_0_L1D_writebacks 0
Core_0_L1D_writeback_hit 0
Core_0_L1D_writeback_miss 0
Core_0_L1D_prefetch_requested 0
Core_0_L1D_prefetch_dropped 0
Core_0_L1D_prefetch_issued 0
Core_0_L1D_prefetch_filled 0
Core_0_L1D_prefetch_useful 0
Core_0_L1D_prefetch_useless 0
Core_0_L1D_prefetch_late 0
Core_0_L1D_average_miss_latency 41.48873

Core_0_L1D_rq_access 307606125
Core_0_L1D_rq_forward 0
Core_0_L1D_rq_merged 49882718
Core_0_L1D_rq_to_cache 257699921
Core_0_L1D_rq_full 0

Core_0_L1D_wq_access 30978597
Core_0_L1D_wq_forward 23486
Core_0_L1D_wq_merged 0
Core_0_L1D_wq_to_cache 30978597
Core_0_L1D_wq_full 0

Core_0_L1D_pq_access 0
Core_0_L1D_pq_forward 0
Core_0_L1D_pq_merged 0
Core_0_L1D_pq_to_cache 0
Core_0_L1D_pq_full 0

Core_0_L1D_acc_epochs 810007
Core_0_L1D_acc_level_0 810007
Core_0_L1D_acc_level_1 0
Core_0_L1D_acc_level_2 0
Core_0_L1D_acc_level_3 0
Core_0_L1D_acc_level_4 0
Core_0_L1D_acc_level_5 0
Core_0_L1D_acc_level_6 0
Core_0_L1D_acc_level_7 0
Core_0_L1D_acc_level_8 0
Core_0_L1D_acc_level_9 0

Core_0_L1I_total_access 133864423
Core_0_L1I_total_hit 133864246
Core_0_L1I_total_miss 177
Core_0_L1I_loads 133864423
Core_0_L1I_load_hit 133864246
Core_0_L1I_load_miss 177
Core_0_L1I_RFOs 0
Core_0_L1I_RFO_hit 0
Core_0_L1I_RFO_miss 0
Core_0_L1I_prefetches 0
Core_0_L1I_prefetch_hit 0
Core_0_L1I_prefetch_miss 0
Core_0_L1I_writebacks 0
Core_0_L1I_writeback_hit 0
Core_0_L1I_writeback_miss 0
Core_0_L1I_prefetch_requested 0
Core_0_L1I_prefetch_dropped 0
Core_0_L1I_prefetch_issued 0
Core_0_L1I_prefetch_filled 0
Core_0_L1I_prefetch_useful 0
Core_0_L1I_prefetch_useless 0
Core_0_L1I_prefetch_late 0
Core_0_L1I_average_miss_latency 395.45763

Core_0_L1I_rq_access 500000003
Core_0_L1I_rq_forward 0
Core_0_L1I_rq_merged 366135505
Core_0_L1I_rq_to_cache 133864498
Core_0_L1I_rq_full 0

Core_0_L1I_wq_access 0
Core_0_L1I_wq_forward 0
Core_0_L1I_wq_merged 0
Core_0_L1I_wq_to_cache 0
Core_0_L1I_wq_full 0

Core_0_L1I_pq_access 0
Core_0_L1I_pq_forward 0
Core_0_L1I_pq_merged 0
Core_0_L1I_pq_to_cache 0
Core_0_L1I_pq_full 0

Core_0_L1I_acc_epochs 810007
Core_0_L1I_acc_level_0 810007
Core_0_L1I_acc_level_1 0
Core_0_L1I_acc_level_2 0
Core_0_L1I_acc_level_3 0
Core_0_L1I_acc_level_4 0
Core_0_L1I_acc_level_5 0
Core_0_L1I_acc_level_6 0
Core_0_L1I_acc_level_7 0
Core_0_L1I_acc_level_8 0
Core_0_L1I_acc_level_9 0

Core_0_L2C_total_access 10162672
Core_0_L2C_total_hit 6701914
Core_0_L2C_total_miss 3460758
Core_0_L2C_loads 4308341
Core_0_L2C_load_hit 2696706
Core_0_L2C_load_miss 1611635
Core_0_L2C_RFOs 789
Core_0_L2C_RFO_hit 767
Core_0_L2C_RFO_miss 22
Core_0_L2C_prefetches 3927541
Core_0_L2C_prefetch_hit 2078552
Core_0_L2C_prefetch_miss 1848989
Core_0_L2C_writebacks 1926001
Core_0_L2C_writeback_hit 1925889
Core_0_L2C_writeback_miss 112
Core_0_L2C_prefetch_requested 16666762
Core_0_L2C_prefetch_dropped 0
Core_0_L2C_prefetch_issued 16666762
Core_0_L2C_prefetch_filled 2223777
Core_0_L2C_prefetch_useful 2162498
Core_0_L2C_prefetch_useless 61191
Core_0_L2C_prefetch_late 179
Core_0_L2C_average_miss_latency 56.73384

Core_0_L2C_rq_access 4310150
Core_0_L2C_rq_forward 0
Core_0_L2C_rq_merged 0
Core_0_L2C_rq_to_cache 4309130
Core_0_L2C_rq_full 0

Core_0_L2C_wq_access 1926001
Core_0_L2C_wq_forward 1020
Core_0_L2C_wq_merged 0
Core_0_L2C_wq_to_cache 1926001
Core_0_L2C_wq_full 0

Core_0_L2C_pq_access 16666762
Core_0_L2C_pq_forward 0
Core_0_L2C_pq_merged 6890
Core_0_L2C_pq_to_cache 16659872
Core_0_L2C_pq_full 0

Core_0_L2C_acc_epochs 810007
Core_0_L2C_acc_level_0 81762
Core_0_L2C_acc_level_1 32963
Core_0_L2C_acc_level_2 37043
Core_0_L2C_acc_level_3 43514
Core_0_L2C_acc_level_4 44489
Core_0_L2C_acc_level_5 48288
Core_0_L2C_acc_level_6 48995
Core_0_L2C_acc_level_7 57253
Core_0_L2C_acc_level_8 71806
Core_0_L2C_acc_level_9 343894

Core_0_LLC_total_access 15848407
Core_0_LLC_total_hit 12397399
Core_0_LLC_total_miss 3451008
Core_0_LLC_loads 1611497
Core_0_LLC_load_hit 1353925
Core_0_LLC_load_miss 257572
Core_0_LLC_RFOs 22
Core_0_LLC_RFO_hit 8
Core_0_LLC_RFO_miss 14
Core_0_LLC_prefetches 12327423
Core_0_LLC_prefetch_hit 9139123
Core_0_LLC_prefetch_miss 3188300
Core_0_LLC_writebacks 1909465
Core_0_LLC_writeback_hit 1904343
Core_0_LLC_writeback_miss 5122
Core_0_LLC_prefetch_requested 0
Core_0_LLC_prefetch_dropped 0
Core_0_LLC_prefetch_issued 0
Core_0_LLC_prefetch_filled 3897133
Core_0_LLC_prefetch_useful 1531511
Core_0_LLC_prefetch_useless 2346185
Core_0_LLC_prefetch_late 569
Core_0_LLC_average_miss_latency 267.12022

Core_0_LLC_rq_access 1611519
Core_0_LLC_rq_forward 0
Core_0_LLC_rq_merged 0
Core_0_LLC_rq_to_cache 1611519
Core_0_LLC_rq_full 0

Core_0_LLC_wq_access 1909465
Core_0_LLC_wq_forward 0
Core_0_LLC_wq_merged 0
Core_0_LLC_wq_to_cache 1909465
Core_0_LLC_wq_full 0

Core_0_LLC_pq_access 14506499
Core_0_LLC_pq_forward 0
Core_0_LLC_pq_merged 49
Core_0_LLC_pq_to_cache 14506450
Core_0_LLC_pq_full 0

Core_0_LLC_acc_epochs 823173
Core_0_LLC_acc_level_0 82015
Core_0_LLC_acc_level_1 148166
Core_0_LLC_acc_level_2 154467
Core_0_LLC_acc_level_3 126752
Core_0_LLC_acc_level_4 84646
Core_0_LLC_acc_level_5 64439
Core_0_LLC_acc_level_6 46053
Core_0_LLC_acc_level_7 27419
Core_0_LLC_acc_level_8 18945
Core_0_LLC_acc_level_9 70271

Core_0_major_page_fault 0
Core_0_minor_page_fault 169020

spp.pref.total 16666762
spp.pref.at_L2 2525335
spp.pref.at_LLC 14141427

spp.depth.max 9
spp.depth.min 0
spp.depth.avg 3

spp.breadth.max 2
spp.breadth.min 0
spp.breadth.avg 0

delta_1 16068653
delta_28 553096
delta_30 319441
delta_-29 288038
delta_2 61480
delta_29 45567
delta_-1 5334
delta_3 4901
delta_-21 3142
delta_20 2449
delta_6 2073
delta_4 1817
delta_-13 1786
delta_24 1239
delta_-25 1142
delta_-10 934
delta_13 928
delta_-2 904
delta_57 875
delta_10 628
delta_-9 603
delta_16 416
delta_-23 382
delta_-8 377
delta_12 377
delta_-18 376
delta_-5 342
delta_23 316
delta_-17 282
delta_21 275
delta_-16 251
delta_14 236
delta_5 231
delta_26 200
delta_11 195
delta_-4 166
delta_8 143
delta_-19 131
delta_19 128
delta_7 127
delta_-3 111
delta_9 105
delta_-15 102
delta_-22 70
delta_-40 65
delta_-55 39
delta_31 28
delta_-30 25
delta_-56 21
delta_17 17
delta_-54 17
delta_-7 16
delta_22 16
delta_-39 10
delta_-14 9
delta_32 6
delta_15 6
delta_33 5
delta_-11 4
delta_34 4
delta_50 3
delta_-12 2
delta_48 2
delta_27 2
delta_43 1
delta_-26 1
delta_58 1

depth_1_delta_1 4307668
depth_1_delta_28 304171
depth_1_delta_30 125591
depth_1_delta_-29 107920
depth_1_delta_29 43113
depth_1_delta_2 37833
depth_1_delta_-1 5113
depth_1_delta_3 4407
depth_1_delta_-21 2557
depth_1_delta_20 2180
depth_1_delta_6 1974
depth_1_delta_4 1778
depth_1_delta_-13 1688
depth_1_delta_24 1059
depth_1_delta_-25 932
depth_1_delta_-10 929
depth_1_delta_-2 885
depth_1_delta_57 863
depth_1_delta_13 640
depth_1_delta_10 567
depth_1_delta_-9 477
depth_1_delta_-23 381
depth_1_delta_12 366
depth_1_delta_-8 340
depth_1_delta_-5 332
depth_1_delta_-18 326
depth_1_delta_16 315
depth_1_delta_23 303
depth_1_delta_-17 277
depth_1_delta_21 274
depth_1_delta_5 225
depth_1_delta_14 223
depth_1_delta_-16 206
depth_1_delta_11 195
depth_1_delta_-4 165
depth_1_delta_8 141
depth_1_delta_-19 131
depth_1_delta_7 126
depth_1_delta_26 119
depth_1_delta_19 117
depth_1_delta_-3 111
depth_1_delta_9 102
depth_1_delta_-15 99
depth_1_delta_-22 70
depth_1_delta_-40 65
depth_1_delta_-55 39
depth_1_delta_31 28
depth_1_delta_-30 22
depth_1_delta_-56 21
depth_1_delta_17 17
depth_1_delta_-54 17
depth_1_delta_-7 16
depth_1_delta_22 14
depth_1_delta_-39 10
depth_1_delta_-14 9
depth_1_delta_32 6
depth_1_delta_15 6
depth_1_delta_33 5
depth_1_delta_-11 4
depth_1_delta_34 4
depth_1_delta_50 3
depth_1_delta_-12 2
depth_1_delta_48 2
depth_1_delta_27 2
depth_1_delta_43 1
depth_1_delta_-26 1
depth_1_delta_58 1
depth_2_delta_1 3770980
depth_2_delta_28 196376
depth_2_delta_30 87317
depth_2_delta_-29 81386
depth_2_delta_2 17424
depth_2_delta_29 2390
depth_2_delta_-21 583
depth_2_delta_3 485
depth_2_delta_13 283
depth_2_delta_20 268
depth_2_delta_-1 196
depth_2_delta_-25 186
depth_2_delta_24 180
depth_2_delta_-9 115
depth_2_delta_16 100
depth_2_delta_6 99
depth_2_delta_-13 98
depth_2_delta_10 61
depth_2_delta_26 55
depth_2_delta_-18 50
depth_2_delta_-16 45
depth_2_delta_4 39
depth_2_delta_-8 37
depth_2_delta_-2 19
depth_2_delta_23 13
depth_2_delta_14 13
depth_2_delta_12 11
depth_2_delta_19 11
depth_2_delta_57 10
depth_2_delta_-5 10
depth_2_delta_5 6
depth_2_delta_-10 5
depth_2_delta_-17 5
depth_2_delta_-30 3
depth_2_delta_-15 3
depth_2_delta_9 3
depth_2_delta_8 2
depth_2_delta_22 2
depth_2_delta_-4 1
depth_2_delta_21 1
depth_2_delta_-23 1
depth_2_delta_7 1
depth_3_delta_1 3135934
depth_3_delta_30 57796
depth_3_delta_28 49163
depth_3_delta_-29 45438
depth_3_delta_2 4607
depth_3_delta_29 64
depth_3_delta_-1 25
depth_3_delta_26 24
depth_3_delta_-25 22
depth_3_delta_-9 11
depth_3_delta_3 9
depth_3_delta_13 5
depth_3_delta_57 2
depth_3_delta_-21 2
depth_3_delta_16 1
depth_3_delta_20 1
depth_4_delta_1 2661573
depth_4_delta_-29 33908
depth_4_delta_30 30715
depth_4_delta_28 3324
depth_4_delta_2 1616
depth_4_delta_26 2
depth_4_delta_-25 2
depth_5_delta_1 1698985
depth_5_delta_-29 17236
depth_5_delta_30 16201
depth_5_delta_28 62
depth_6_delta_1 409289
depth_6_delta_-29 2143
depth_6_delta_30 1818
depth_7_delta_1 79955
depth_7_delta_-29 7
depth_7_delta_30 3
depth_8_delta_1 4144
depth_9_delta_1 125

Channel_0_RQ_row_buffer_hit 1288565
Channel_0_RQ_row_buffer_miss 2157321
Channel_0_WQ_row_buffer_hit 304170
Channel_0_WQ_row_buffer_miss 1604567
Channel_0_WQ_full 0
Channel_0_dbus_congested 3465970

avg_congested_cycle 43

DRAM_bw_pochs 3292689
DRAM_bw_level_0 1968202
DRAM_bw_level_1 459171
DRAM_bw_level_2 302903
DRAM_bw_level_3 562413
