*************************************************
   ChampSim Multicore Out-of-Order Simulator
   Last compiled: Dec 11 2024 17:59:53
*************************************************
parsing config file: /home/functionmain/桌面/Pythia/config/bingo.ini

trace_0 /home/functionmain/桌面/Pythia/traces/459.GemsFDTD-1211B.champsimtrace.xz
adding L2C_PREFETCHER: Bingo
Initialize SHIP state
warmup_instructions 100000000
simulation_instructions 500000000
champsim_seed 263
measure_ipc 0
measure_ipc_epoch 1000
measure_dram_bw 1
measure_dram_bw_epoch 256
measure_cache_acc 1
measure_cache_acc_epoch 1024
l1d_perfect 0
l2c_perfect 0
llc_perfect 0
l1d_semi_perfect 0
l2c_semi_perfect 0
llc_semi_perfect 0
semi_perfect_cache_page_buffer_size 64

num_cpus 1
cpu_freq 4000
dram_io_freq 2400
page_size 4096
block_size 64
max_read_per_cycle 8
max_fill_per_cycle 1
dram_channels 1
log2_dram_channels 0
dram_ranks 1
dram_banks 8
dram_rows 65536
dram_columns 128
dram_row_size 8
dram_size 4096
dram_pages 1048576

fetch_width 6
decode_width 6
exec_width 4
lq_width 2
sq_width 2
retire_width 4
scheduler_size 128
branch_mispredict_penalty 20
rob_size 256
lq_size 72
sq_size 56
num_instr_destinations_sparc 4
num_instr_destinations 2
num_instr_sources 4

itlb_set 16
itlb_way 8
itlb_rq_size 16
itlb_wq_size 16
itlb_pq_size 0
itlb_mshr_size 8
itlb_latency 1

dtlb_set 16
dtlb_way 4
dtlb_rq_size 16
dtlb_wq_size 16
dtlb_pq_size 0
dtlb_mshr_size 8
dtlb_latency 1

stlb_set 128
stlb_way 12
stlb_rq_size 32
stlb_wq_size 32
stlb_pq_size 0
stlb_mshr_size 16
stlb_latency 8

l1i_size 32
l1i_set 64
l1i_way 8
l1i_rq_size 64
l1i_wq_size 64
l1i_pq_size 8
l1i_mshr_size 8
l1i_latency 1

l1d_size 32
l1d_set 64
l1d_way 8
l1d_rq_size 64
l1d_wq_size 64
l1d_pq_size 8
l1d_mshr_size 16
l1d_latency 4

l2c_size 256
l2c_set 512
l2c_way 8
l2c_rq_size 32
l2c_wq_size 32
l2c_pq_size 32
l2c_mshr_size 32
l2c_latency 10

llc_size 2048
llc_set 2048
llc_way 16
llc_rq_size 32
llc_wq_size 32
llc_pq_size 32
llc_mshr_size 64
llc_latency 20

dram_channel_width 8
dram_wq_size 64
dram_rq_size 64
tRP 15
tRCD 15
tCAS 12.5
dram_dbus_turn_around_time 30
dram_write_high_wm 56
dram_write_low_wm 48
min_dram_writes_per_switch 16
dram_mtps 2400
dram_dbus_return_time 13

bingo_region_size 2048
bingo_pattern_len 32
bingo_pc_width 16
bingo_min_addr_width 5
bingo_max_addr_width 16
bingo_ft_size 64
bingo_at_size 128
bingo_pht_size 4096
bingo_pht_ways 16
bingo_pf_streamer_size 128
bingo_debug_level 0
bingo_l1d_thresh 1.01
bingo_l2c_thresh 0.8
bingo_llc_thresh 0.05
bingo_pc_address_fill_level L2


Heartbeat CPU  0 instructions:    1000003 cycles:     792437 heartbeat IPC: 1.26193 cumulative IPC: 1.26193 (Simulation time: 0 hr 0 min 2 sec) 
Heartbeat CPU  0 instructions:    2000002 cycles:    1584171 heartbeat IPC: 1.26305 cumulative IPC: 1.26249 (Simulation time: 0 hr 0 min 5 sec) 
Heartbeat CPU  0 instructions:    3000003 cycles:    2375955 heartbeat IPC: 1.26297 cumulative IPC: 1.26265 (Simulation time: 0 hr 0 min 7 sec) 
Heartbeat CPU  0 instructions:    4000000 cycles:    3167748 heartbeat IPC: 1.26295 cumulative IPC: 1.26273 (Simulation time: 0 hr 0 min 10 sec) 
Heartbeat CPU  0 instructions:    5000000 cycles:    3959644 heartbeat IPC: 1.26279 cumulative IPC: 1.26274 (Simulation time: 0 hr 0 min 12 sec) 
Heartbeat CPU  0 instructions:    6000002 cycles:    4751420 heartbeat IPC: 1.26299 cumulative IPC: 1.26278 (Simulation time: 0 hr 0 min 15 sec) 
Heartbeat CPU  0 instructions:    7000000 cycles:    5543132 heartbeat IPC: 1.26308 cumulative IPC: 1.26282 (Simulation time: 0 hr 0 min 17 sec) 
Heartbeat CPU  0 instructions:    8000000 cycles:    6335037 heartbeat IPC: 1.26278 cumulative IPC: 1.26282 (Simulation time: 0 hr 0 min 20 sec) 
Heartbeat CPU  0 instructions:    9000000 cycles:    7126838 heartbeat IPC: 1.26294 cumulative IPC: 1.26283 (Simulation time: 0 hr 0 min 22 sec) 
Heartbeat CPU  0 instructions:   10000001 cycles:    7918441 heartbeat IPC: 1.26326 cumulative IPC: 1.26287 (Simulation time: 0 hr 0 min 25 sec) 
Heartbeat CPU  0 instructions:   11000000 cycles:    8709976 heartbeat IPC: 1.26337 cumulative IPC: 1.26292 (Simulation time: 0 hr 0 min 27 sec) 
Heartbeat CPU  0 instructions:   12000000 cycles:    9501805 heartbeat IPC: 1.26290 cumulative IPC: 1.26292 (Simulation time: 0 hr 0 min 30 sec) 
Heartbeat CPU  0 instructions:   13000000 cycles:   10293637 heartbeat IPC: 1.26289 cumulative IPC: 1.26292 (Simulation time: 0 hr 0 min 32 sec) 
Heartbeat CPU  0 instructions:   14000002 cycles:   11085335 heartbeat IPC: 1.26311 cumulative IPC: 1.26293 (Simulation time: 0 hr 0 min 35 sec) 
Heartbeat CPU  0 instructions:   15000000 cycles:   11877176 heartbeat IPC: 1.26288 cumulative IPC: 1.26293 (Simulation time: 0 hr 0 min 38 sec) 
Heartbeat CPU  0 instructions:   16000000 cycles:   12668896 heartbeat IPC: 1.26307 cumulative IPC: 1.26294 (Simulation time: 0 hr 0 min 40 sec) 
Heartbeat CPU  0 instructions:   17000001 cycles:   13460729 heartbeat IPC: 1.26289 cumulative IPC: 1.26293 (Simulation time: 0 hr 0 min 43 sec) 
Heartbeat CPU  0 instructions:   18000002 cycles:   14252433 heartbeat IPC: 1.26310 cumulative IPC: 1.26294 (Simulation time: 0 hr 0 min 45 sec) 
Heartbeat CPU  0 instructions:   19000000 cycles:   15044187 heartbeat IPC: 1.26302 cumulative IPC: 1.26295 (Simulation time: 0 hr 0 min 48 sec) 
Heartbeat CPU  0 instructions:   20000000 cycles:   15835595 heartbeat IPC: 1.26357 cumulative IPC: 1.26298 (Simulation time: 0 hr 0 min 50 sec) 
Heartbeat CPU  0 instructions:   21000000 cycles:   16627158 heartbeat IPC: 1.26332 cumulative IPC: 1.26299 (Simulation time: 0 hr 0 min 53 sec) 
Heartbeat CPU  0 instructions:   22000003 cycles:   17418895 heartbeat IPC: 1.26305 cumulative IPC: 1.26300 (Simulation time: 0 hr 0 min 55 sec) 
Heartbeat CPU  0 instructions:   23000000 cycles:   18210691 heartbeat IPC: 1.26295 cumulative IPC: 1.26299 (Simulation time: 0 hr 0 min 58 sec) 
Heartbeat CPU  0 instructions:   24000000 cycles:   19002483 heartbeat IPC: 1.26296 cumulative IPC: 1.26299 (Simulation time: 0 hr 1 min 0 sec) 
Heartbeat CPU  0 instructions:   25000001 cycles:   19794289 heartbeat IPC: 1.26294 cumulative IPC: 1.26299 (Simulation time: 0 hr 1 min 3 sec) 
Heartbeat CPU  0 instructions:   26000002 cycles:   20586113 heartbeat IPC: 1.26291 cumulative IPC: 1.26299 (Simulation time: 0 hr 1 min 5 sec) 
Heartbeat CPU  0 instructions:   27000001 cycles:   21377757 heartbeat IPC: 1.26319 cumulative IPC: 1.26300 (Simulation time: 0 hr 1 min 8 sec) 
Heartbeat CPU  0 instructions:   28000000 cycles:   22169600 heartbeat IPC: 1.26288 cumulative IPC: 1.26299 (Simulation time: 0 hr 1 min 10 sec) 
Heartbeat CPU  0 instructions:   29000001 cycles:   22961385 heartbeat IPC: 1.26297 cumulative IPC: 1.26299 (Simulation time: 0 hr 1 min 13 sec) 
Heartbeat CPU  0 instructions:   30000002 cycles:   23753052 heartbeat IPC: 1.26316 cumulative IPC: 1.26300 (Simulation time: 0 hr 1 min 15 sec) 
Heartbeat CPU  0 instructions:   31000001 cycles:   24544678 heartbeat IPC: 1.26322 cumulative IPC: 1.26300 (Simulation time: 0 hr 1 min 18 sec) 
Heartbeat CPU  0 instructions:   32000000 cycles:   25336113 heartbeat IPC: 1.26353 cumulative IPC: 1.26302 (Simulation time: 0 hr 1 min 21 sec) 
Heartbeat CPU  0 instructions:   33000001 cycles:   26127931 heartbeat IPC: 1.26292 cumulative IPC: 1.26302 (Simulation time: 0 hr 1 min 23 sec) 
Heartbeat CPU  0 instructions:   34000003 cycles:   26919701 heartbeat IPC: 1.26300 cumulative IPC: 1.26302 (Simulation time: 0 hr 1 min 26 sec) 
Heartbeat CPU  0 instructions:   35000001 cycles:   27711408 heartbeat IPC: 1.26309 cumulative IPC: 1.26302 (Simulation time: 0 hr 1 min 28 sec) 
Heartbeat CPU  0 instructions:   36000000 cycles:   28503252 heartbeat IPC: 1.26287 cumulative IPC: 1.26301 (Simulation time: 0 hr 1 min 31 sec) 
Heartbeat CPU  0 instructions:   37000000 cycles:   29295089 heartbeat IPC: 1.26289 cumulative IPC: 1.26301 (Simulation time: 0 hr 1 min 33 sec) 
Heartbeat CPU  0 instructions:   38000000 cycles:   30086791 heartbeat IPC: 1.26310 cumulative IPC: 1.26301 (Simulation time: 0 hr 1 min 36 sec) 
Heartbeat CPU  0 instructions:   39000001 cycles:   30878516 heartbeat IPC: 1.26307 cumulative IPC: 1.26301 (Simulation time: 0 hr 1 min 38 sec) 
Heartbeat CPU  0 instructions:   40000000 cycles:   31661244 heartbeat IPC: 1.27758 cumulative IPC: 1.26337 (Simulation time: 0 hr 1 min 41 sec) 
Heartbeat CPU  0 instructions:   41000001 cycles:   32434269 heartbeat IPC: 1.29362 cumulative IPC: 1.26410 (Simulation time: 0 hr 1 min 44 sec) 
Heartbeat CPU  0 instructions:   42000003 cycles:   33206996 heartbeat IPC: 1.29412 cumulative IPC: 1.26479 (Simulation time: 0 hr 1 min 46 sec) 
Heartbeat CPU  0 instructions:   43000001 cycles:   33982822 heartbeat IPC: 1.28895 cumulative IPC: 1.26535 (Simulation time: 0 hr 1 min 49 sec) 
Heartbeat CPU  0 instructions:   44000000 cycles:   34774302 heartbeat IPC: 1.26345 cumulative IPC: 1.26530 (Simulation time: 0 hr 1 min 51 sec) 
Heartbeat CPU  0 instructions:   45000001 cycles:   35565626 heartbeat IPC: 1.26371 cumulative IPC: 1.26527 (Simulation time: 0 hr 1 min 54 sec) 
Heartbeat CPU  0 instructions:   46000003 cycles:   36357216 heartbeat IPC: 1.26328 cumulative IPC: 1.26522 (Simulation time: 0 hr 1 min 57 sec) 
Heartbeat CPU  0 instructions:   47000001 cycles:   37148494 heartbeat IPC: 1.26378 cumulative IPC: 1.26519 (Simulation time: 0 hr 1 min 59 sec) 
Heartbeat CPU  0 instructions:   48000000 cycles:   37939905 heartbeat IPC: 1.26356 cumulative IPC: 1.26516 (Simulation time: 0 hr 2 min 2 sec) 
Heartbeat CPU  0 instructions:   49000001 cycles:   38731112 heartbeat IPC: 1.26389 cumulative IPC: 1.26513 (Simulation time: 0 hr 2 min 4 sec) 
Heartbeat CPU  0 instructions:   50000003 cycles:   39522243 heartbeat IPC: 1.26402 cumulative IPC: 1.26511 (Simulation time: 0 hr 2 min 7 sec) 
Heartbeat CPU  0 instructions:   51000001 cycles:   40313736 heartbeat IPC: 1.26343 cumulative IPC: 1.26508 (Simulation time: 0 hr 2 min 9 sec) 
Heartbeat CPU  0 instructions:   52000000 cycles:   41105135 heartbeat IPC: 1.26358 cumulative IPC: 1.26505 (Simulation time: 0 hr 2 min 12 sec) 
Heartbeat CPU  0 instructions:   53000003 cycles:   41896707 heartbeat IPC: 1.26331 cumulative IPC: 1.26502 (Simulation time: 0 hr 2 min 14 sec) 
Heartbeat CPU  0 instructions:   54000002 cycles:   42688174 heartbeat IPC: 1.26348 cumulative IPC: 1.26499 (Simulation time: 0 hr 2 min 17 sec) 
Heartbeat CPU  0 instructions:   55000001 cycles:   43479514 heartbeat IPC: 1.26368 cumulative IPC: 1.26496 (Simulation time: 0 hr 2 min 20 sec) 
Heartbeat CPU  0 instructions:   56000000 cycles:   44270727 heartbeat IPC: 1.26388 cumulative IPC: 1.26494 (Simulation time: 0 hr 2 min 22 sec) 
Heartbeat CPU  0 instructions:   57000000 cycles:   45062253 heartbeat IPC: 1.26338 cumulative IPC: 1.26492 (Simulation time: 0 hr 2 min 25 sec) 
Heartbeat CPU  0 instructions:   58000002 cycles:   45853584 heartbeat IPC: 1.26370 cumulative IPC: 1.26490 (Simulation time: 0 hr 2 min 27 sec) 
Heartbeat CPU  0 instructions:   59000000 cycles:   46645038 heartbeat IPC: 1.26349 cumulative IPC: 1.26487 (Simulation time: 0 hr 2 min 30 sec) 
Heartbeat CPU  0 instructions:   60000000 cycles:   47436327 heartbeat IPC: 1.26376 cumulative IPC: 1.26485 (Simulation time: 0 hr 2 min 32 sec) 
Heartbeat CPU  0 instructions:   61000000 cycles:   48227431 heartbeat IPC: 1.26406 cumulative IPC: 1.26484 (Simulation time: 0 hr 2 min 35 sec) 
Heartbeat CPU  0 instructions:   62000002 cycles:   49019033 heartbeat IPC: 1.26326 cumulative IPC: 1.26481 (Simulation time: 0 hr 2 min 37 sec) 
Heartbeat CPU  0 instructions:   63000000 cycles:   49810482 heartbeat IPC: 1.26350 cumulative IPC: 1.26479 (Simulation time: 0 hr 2 min 40 sec) 
Heartbeat CPU  0 instructions:   64000000 cycles:   50601823 heartbeat IPC: 1.26368 cumulative IPC: 1.26478 (Simulation time: 0 hr 2 min 43 sec) 
Heartbeat CPU  0 instructions:   65000000 cycles:   51393403 heartbeat IPC: 1.26330 cumulative IPC: 1.26475 (Simulation time: 0 hr 2 min 45 sec) 
Heartbeat CPU  0 instructions:   66000003 cycles:   52184689 heartbeat IPC: 1.26377 cumulative IPC: 1.26474 (Simulation time: 0 hr 2 min 48 sec) 
Heartbeat CPU  0 instructions:   67000000 cycles:   52976072 heartbeat IPC: 1.26361 cumulative IPC: 1.26472 (Simulation time: 0 hr 2 min 50 sec) 
Heartbeat CPU  0 instructions:   68000000 cycles:   53767298 heartbeat IPC: 1.26386 cumulative IPC: 1.26471 (Simulation time: 0 hr 2 min 53 sec) 
Heartbeat CPU  0 instructions:   69000001 cycles:   54558702 heartbeat IPC: 1.26358 cumulative IPC: 1.26469 (Simulation time: 0 hr 2 min 55 sec) 
Heartbeat CPU  0 instructions:   70000002 cycles:   55349953 heartbeat IPC: 1.26382 cumulative IPC: 1.26468 (Simulation time: 0 hr 2 min 58 sec) 
Heartbeat CPU  0 instructions:   71000001 cycles:   56141330 heartbeat IPC: 1.26362 cumulative IPC: 1.26467 (Simulation time: 0 hr 3 min 0 sec) 
Heartbeat CPU  0 instructions:   72000000 cycles:   56932458 heartbeat IPC: 1.26402 cumulative IPC: 1.26466 (Simulation time: 0 hr 3 min 3 sec) 
Heartbeat CPU  0 instructions:   73000003 cycles:   57724187 heartbeat IPC: 1.26306 cumulative IPC: 1.26463 (Simulation time: 0 hr 3 min 5 sec) 
Heartbeat CPU  0 instructions:   74000003 cycles:   58515428 heartbeat IPC: 1.26384 cumulative IPC: 1.26462 (Simulation time: 0 hr 3 min 8 sec) 
Heartbeat CPU  0 instructions:   75000001 cycles:   59306800 heartbeat IPC: 1.26363 cumulative IPC: 1.26461 (Simulation time: 0 hr 3 min 11 sec) 
Heartbeat CPU  0 instructions:   76000000 cycles:   60098386 heartbeat IPC: 1.26329 cumulative IPC: 1.26459 (Simulation time: 0 hr 3 min 13 sec) 
Heartbeat CPU  0 instructions:   77000002 cycles:   60889630 heartbeat IPC: 1.26384 cumulative IPC: 1.26458 (Simulation time: 0 hr 3 min 16 sec) 
Heartbeat CPU  0 instructions:   78000001 cycles:   61681046 heartbeat IPC: 1.26356 cumulative IPC: 1.26457 (Simulation time: 0 hr 3 min 18 sec) 
Heartbeat CPU  0 instructions:   79000000 cycles:   62472315 heartbeat IPC: 1.26379 cumulative IPC: 1.26456 (Simulation time: 0 hr 3 min 21 sec) 
Heartbeat CPU  0 instructions:   80000000 cycles:   63263720 heartbeat IPC: 1.26358 cumulative IPC: 1.26455 (Simulation time: 0 hr 3 min 23 sec) 
Heartbeat CPU  0 instructions:   81000000 cycles:   64055018 heartbeat IPC: 1.26375 cumulative IPC: 1.26454 (Simulation time: 0 hr 3 min 26 sec) 
Heartbeat CPU  0 instructions:   82000002 cycles:   64846271 heartbeat IPC: 1.26382 cumulative IPC: 1.26453 (Simulation time: 0 hr 3 min 28 sec) 
Heartbeat CPU  0 instructions:   83000000 cycles:   65637599 heartbeat IPC: 1.26370 cumulative IPC: 1.26452 (Simulation time: 0 hr 3 min 31 sec) 
Heartbeat CPU  0 instructions:   84000000 cycles:   66428941 heartbeat IPC: 1.26368 cumulative IPC: 1.26451 (Simulation time: 0 hr 3 min 34 sec) 
Heartbeat CPU  0 instructions:   85000000 cycles:   67220322 heartbeat IPC: 1.26361 cumulative IPC: 1.26450 (Simulation time: 0 hr 3 min 36 sec) 
Heartbeat CPU  0 instructions:   86000002 cycles:   68011582 heartbeat IPC: 1.26381 cumulative IPC: 1.26449 (Simulation time: 0 hr 3 min 39 sec) 
Heartbeat CPU  0 instructions:   87000000 cycles:   68802915 heartbeat IPC: 1.26369 cumulative IPC: 1.26448 (Simulation time: 0 hr 3 min 41 sec) 
Heartbeat CPU  0 instructions:   88000000 cycles:   69594113 heartbeat IPC: 1.26391 cumulative IPC: 1.26447 (Simulation time: 0 hr 3 min 44 sec) 
Heartbeat CPU  0 instructions:   89000000 cycles:   70385566 heartbeat IPC: 1.26350 cumulative IPC: 1.26446 (Simulation time: 0 hr 3 min 46 sec) 
Heartbeat CPU  0 instructions:   90000003 cycles:   71176818 heartbeat IPC: 1.26382 cumulative IPC: 1.26446 (Simulation time: 0 hr 3 min 49 sec) 
Heartbeat CPU  0 instructions:   91000000 cycles:   71968023 heartbeat IPC: 1.26389 cumulative IPC: 1.26445 (Simulation time: 0 hr 3 min 51 sec) 
Heartbeat CPU  0 instructions:   92000000 cycles:   72759355 heartbeat IPC: 1.26369 cumulative IPC: 1.26444 (Simulation time: 0 hr 3 min 54 sec) 
Heartbeat CPU  0 instructions:   93000001 cycles:   73550553 heartbeat IPC: 1.26391 cumulative IPC: 1.26444 (Simulation time: 0 hr 3 min 57 sec) 
Heartbeat CPU  0 instructions:   94000001 cycles:   74342011 heartbeat IPC: 1.26349 cumulative IPC: 1.26443 (Simulation time: 0 hr 3 min 59 sec) 
Heartbeat CPU  0 instructions:   95000000 cycles:   75133224 heartbeat IPC: 1.26388 cumulative IPC: 1.26442 (Simulation time: 0 hr 4 min 2 sec) 
Heartbeat CPU  0 instructions:   96000000 cycles:   75924483 heartbeat IPC: 1.26381 cumulative IPC: 1.26441 (Simulation time: 0 hr 4 min 4 sec) 
Heartbeat CPU  0 instructions:   97000003 cycles:   76715975 heartbeat IPC: 1.26344 cumulative IPC: 1.26440 (Simulation time: 0 hr 4 min 7 sec) 
Heartbeat CPU  0 instructions:   98000003 cycles:   77507253 heartbeat IPC: 1.26378 cumulative IPC: 1.26440 (Simulation time: 0 hr 4 min 9 sec) 
Heartbeat CPU  0 instructions:   99000003 cycles:   78298504 heartbeat IPC: 1.26382 cumulative IPC: 1.26439 (Simulation time: 0 hr 4 min 12 sec) 
Heartbeat CPU  0 instructions:  100000000 cycles:   79089769 heartbeat IPC: 1.26380 cumulative IPC: 1.26439 (Simulation time: 0 hr 4 min 14 sec) 

Warmup complete CPU  0 instructions:  100000001 cycles:   79089770 (Simulation time: 0 hr 4 min 14 sec) 

Heartbeat CPU  0 instructions:  101000001 cycles:   80762722 heartbeat IPC: 0.59775 cumulative IPC: 0.59775 (Simulation time: 0 hr 4 min 17 sec) 
Heartbeat CPU  0 instructions:  102000002 cycles:   82438627 heartbeat IPC: 0.59669 cumulative IPC: 0.59722 (Simulation time: 0 hr 4 min 21 sec) 
Heartbeat CPU  0 instructions:  103000003 cycles:   84108309 heartbeat IPC: 0.59892 cumulative IPC: 0.59778 (Simulation time: 0 hr 4 min 24 sec) 
Heartbeat CPU  0 instructions:  104000000 cycles:   85778253 heartbeat IPC: 0.59882 cumulative IPC: 0.59804 (Simulation time: 0 hr 4 min 27 sec) 
Heartbeat CPU  0 instructions:  105000001 cycles:   87457977 heartbeat IPC: 0.59534 cumulative IPC: 0.59750 (Simulation time: 0 hr 4 min 30 sec) 
Heartbeat CPU  0 instructions:  106000002 cycles:   89133717 heartbeat IPC: 0.59675 cumulative IPC: 0.59737 (Simulation time: 0 hr 4 min 33 sec) 
Heartbeat CPU  0 instructions:  107000000 cycles:   90809190 heartbeat IPC: 0.59685 cumulative IPC: 0.59730 (Simulation time: 0 hr 4 min 36 sec) 
Heartbeat CPU  0 instructions:  108000000 cycles:   92480914 heartbeat IPC: 0.59818 cumulative IPC: 0.59741 (Simulation time: 0 hr 4 min 39 sec) 
Heartbeat CPU  0 instructions:  109000000 cycles:   94153355 heartbeat IPC: 0.59793 cumulative IPC: 0.59747 (Simulation time: 0 hr 4 min 42 sec) 
Heartbeat CPU  0 instructions:  110000002 cycles:   95820572 heartbeat IPC: 0.59980 cumulative IPC: 0.59770 (Simulation time: 0 hr 4 min 46 sec) 
Heartbeat CPU  0 instructions:  111000001 cycles:   97487096 heartbeat IPC: 0.60005 cumulative IPC: 0.59791 (Simulation time: 0 hr 4 min 49 sec) 
Heartbeat CPU  0 instructions:  112000000 cycles:   99157702 heartbeat IPC: 0.59858 cumulative IPC: 0.59797 (Simulation time: 0 hr 4 min 52 sec) 
Heartbeat CPU  0 instructions:  113000000 cycles:  100837075 heartbeat IPC: 0.59546 cumulative IPC: 0.59778 (Simulation time: 0 hr 4 min 55 sec) 
Heartbeat CPU  0 instructions:  114000002 cycles:  102513857 heartbeat IPC: 0.59638 cumulative IPC: 0.59768 (Simulation time: 0 hr 4 min 58 sec) 
Heartbeat CPU  0 instructions:  115000002 cycles:  104186360 heartbeat IPC: 0.59791 cumulative IPC: 0.59769 (Simulation time: 0 hr 5 min 1 sec) 
Heartbeat CPU  0 instructions:  116000000 cycles:  105862770 heartbeat IPC: 0.59651 cumulative IPC: 0.59762 (Simulation time: 0 hr 5 min 4 sec) 
Heartbeat CPU  0 instructions:  117000001 cycles:  107537871 heartbeat IPC: 0.59698 cumulative IPC: 0.59758 (Simulation time: 0 hr 5 min 7 sec) 
Heartbeat CPU  0 instructions:  118000000 cycles:  109210446 heartbeat IPC: 0.59788 cumulative IPC: 0.59760 (Simulation time: 0 hr 5 min 10 sec) 
Heartbeat CPU  0 instructions:  119000000 cycles:  110880489 heartbeat IPC: 0.59879 cumulative IPC: 0.59766 (Simulation time: 0 hr 5 min 14 sec) 
Heartbeat CPU  0 instructions:  120000000 cycles:  112552930 heartbeat IPC: 0.59793 cumulative IPC: 0.59767 (Simulation time: 0 hr 5 min 17 sec) 
Heartbeat CPU  0 instructions:  121000003 cycles:  114226314 heartbeat IPC: 0.59759 cumulative IPC: 0.59767 (Simulation time: 0 hr 5 min 20 sec) 
Heartbeat CPU  0 instructions:  122000001 cycles:  115896719 heartbeat IPC: 0.59866 cumulative IPC: 0.59771 (Simulation time: 0 hr 5 min 23 sec) 
Heartbeat CPU  0 instructions:  123000000 cycles:  117567187 heartbeat IPC: 0.59863 cumulative IPC: 0.59775 (Simulation time: 0 hr 5 min 26 sec) 
Heartbeat CPU  0 instructions:  124000000 cycles:  119240523 heartbeat IPC: 0.59761 cumulative IPC: 0.59775 (Simulation time: 0 hr 5 min 29 sec) 
Heartbeat CPU  0 instructions:  125000001 cycles:  120911563 heartbeat IPC: 0.59843 cumulative IPC: 0.59777 (Simulation time: 0 hr 5 min 32 sec) 
Heartbeat CPU  0 instructions:  126000001 cycles:  122588946 heartbeat IPC: 0.59617 cumulative IPC: 0.59771 (Simulation time: 0 hr 5 min 35 sec) 
Heartbeat CPU  0 instructions:  127000003 cycles:  124262216 heartbeat IPC: 0.59763 cumulative IPC: 0.59771 (Simulation time: 0 hr 5 min 39 sec) 
Heartbeat CPU  0 instructions:  128000000 cycles:  125941045 heartbeat IPC: 0.59565 cumulative IPC: 0.59764 (Simulation time: 0 hr 5 min 42 sec) 
Heartbeat CPU  0 instructions:  129000003 cycles:  127615210 heartbeat IPC: 0.59731 cumulative IPC: 0.59762 (Simulation time: 0 hr 5 min 45 sec) 
Heartbeat CPU  0 instructions:  130000001 cycles:  129289078 heartbeat IPC: 0.59742 cumulative IPC: 0.59762 (Simulation time: 0 hr 5 min 48 sec) 
Heartbeat CPU  0 instructions:  131000000 cycles:  130961502 heartbeat IPC: 0.59793 cumulative IPC: 0.59763 (Simulation time: 0 hr 5 min 51 sec) 
Heartbeat CPU  0 instructions:  132000000 cycles:  132638876 heartbeat IPC: 0.59617 cumulative IPC: 0.59758 (Simulation time: 0 hr 5 min 54 sec) 
Heartbeat CPU  0 instructions:  133000000 cycles:  134306250 heartbeat IPC: 0.59975 cumulative IPC: 0.59765 (Simulation time: 0 hr 5 min 57 sec) 
Heartbeat CPU  0 instructions:  134000002 cycles:  135974459 heartbeat IPC: 0.59945 cumulative IPC: 0.59770 (Simulation time: 0 hr 6 min 0 sec) 
Heartbeat CPU  0 instructions:  135000003 cycles:  137649796 heartbeat IPC: 0.59690 cumulative IPC: 0.59768 (Simulation time: 0 hr 6 min 3 sec) 
Heartbeat CPU  0 instructions:  136000000 cycles:  139321352 heartbeat IPC: 0.59824 cumulative IPC: 0.59769 (Simulation time: 0 hr 6 min 7 sec) 
Heartbeat CPU  0 instructions:  137000000 cycles:  141004351 heartbeat IPC: 0.59418 cumulative IPC: 0.59760 (Simulation time: 0 hr 6 min 10 sec) 
Heartbeat CPU  0 instructions:  138000000 cycles:  142676943 heartbeat IPC: 0.59787 cumulative IPC: 0.59760 (Simulation time: 0 hr 6 min 13 sec) 
Heartbeat CPU  0 instructions:  139000002 cycles:  144352421 heartbeat IPC: 0.59685 cumulative IPC: 0.59759 (Simulation time: 0 hr 6 min 16 sec) 
Heartbeat CPU  0 instructions:  140000000 cycles:  146029523 heartbeat IPC: 0.59627 cumulative IPC: 0.59755 (Simulation time: 0 hr 6 min 19 sec) 
Heartbeat CPU  0 instructions:  141000002 cycles:  147697915 heartbeat IPC: 0.59938 cumulative IPC: 0.59760 (Simulation time: 0 hr 6 min 22 sec) 
Heartbeat CPU  0 instructions:  142000000 cycles:  149365618 heartbeat IPC: 0.59963 cumulative IPC: 0.59764 (Simulation time: 0 hr 6 min 25 sec) 
Heartbeat CPU  0 instructions:  143000003 cycles:  151041755 heartbeat IPC: 0.59661 cumulative IPC: 0.59762 (Simulation time: 0 hr 6 min 28 sec) 
Heartbeat CPU  0 instructions:  144000000 cycles:  152713096 heartbeat IPC: 0.59832 cumulative IPC: 0.59764 (Simulation time: 0 hr 6 min 31 sec) 
Heartbeat CPU  0 instructions:  145000003 cycles:  154392823 heartbeat IPC: 0.59534 cumulative IPC: 0.59759 (Simulation time: 0 hr 6 min 35 sec) 
Heartbeat CPU  0 instructions:  146000001 cycles:  156062776 heartbeat IPC: 0.59882 cumulative IPC: 0.59761 (Simulation time: 0 hr 6 min 38 sec) 
Heartbeat CPU  0 instructions:  147000003 cycles:  157730911 heartbeat IPC: 0.59947 cumulative IPC: 0.59765 (Simulation time: 0 hr 6 min 41 sec) 
Heartbeat CPU  0 instructions:  148000000 cycles:  159384324 heartbeat IPC: 0.60481 cumulative IPC: 0.59780 (Simulation time: 0 hr 6 min 44 sec) 
Heartbeat CPU  0 instructions:  149000003 cycles:  161029070 heartbeat IPC: 0.60800 cumulative IPC: 0.59800 (Simulation time: 0 hr 6 min 47 sec) 
Heartbeat CPU  0 instructions:  150000001 cycles:  162676285 heartbeat IPC: 0.60708 cumulative IPC: 0.59818 (Simulation time: 0 hr 6 min 50 sec) 
Heartbeat CPU  0 instructions:  151000003 cycles:  164320625 heartbeat IPC: 0.60815 cumulative IPC: 0.59837 (Simulation time: 0 hr 6 min 53 sec) 
Heartbeat CPU  0 instructions:  152000000 cycles:  165962081 heartbeat IPC: 0.60921 cumulative IPC: 0.59858 (Simulation time: 0 hr 6 min 56 sec) 
Heartbeat CPU  0 instructions:  153000003 cycles:  167608904 heartbeat IPC: 0.60723 cumulative IPC: 0.59874 (Simulation time: 0 hr 6 min 59 sec) 
Heartbeat CPU  0 instructions:  154000001 cycles:  169261114 heartbeat IPC: 0.60525 cumulative IPC: 0.59886 (Simulation time: 0 hr 7 min 2 sec) 
Heartbeat CPU  0 instructions:  155000001 cycles:  170905192 heartbeat IPC: 0.60824 cumulative IPC: 0.59903 (Simulation time: 0 hr 7 min 6 sec) 
Heartbeat CPU  0 instructions:  156000000 cycles:  172553291 heartbeat IPC: 0.60676 cumulative IPC: 0.59916 (Simulation time: 0 hr 7 min 9 sec) 
Heartbeat CPU  0 instructions:  157000001 cycles:  174203931 heartbeat IPC: 0.60583 cumulative IPC: 0.59928 (Simulation time: 0 hr 7 min 12 sec) 
Heartbeat CPU  0 instructions:  158000003 cycles:  175851378 heartbeat IPC: 0.60700 cumulative IPC: 0.59941 (Simulation time: 0 hr 7 min 15 sec) 
Heartbeat CPU  0 instructions:  159000003 cycles:  177506017 heartbeat IPC: 0.60436 cumulative IPC: 0.59949 (Simulation time: 0 hr 7 min 18 sec) 
Heartbeat CPU  0 instructions:  160000000 cycles:  179157971 heartbeat IPC: 0.60534 cumulative IPC: 0.59959 (Simulation time: 0 hr 7 min 21 sec) 
Heartbeat CPU  0 instructions:  161000002 cycles:  180806663 heartbeat IPC: 0.60654 cumulative IPC: 0.59970 (Simulation time: 0 hr 7 min 24 sec) 
Heartbeat CPU  0 instructions:  162000000 cycles:  182449805 heartbeat IPC: 0.60859 cumulative IPC: 0.59984 (Simulation time: 0 hr 7 min 27 sec) 
Heartbeat CPU  0 instructions:  163000000 cycles:  184085902 heartbeat IPC: 0.61121 cumulative IPC: 0.60002 (Simulation time: 0 hr 7 min 30 sec) 
Heartbeat CPU  0 instructions:  164000000 cycles:  185728583 heartbeat IPC: 0.60876 cumulative IPC: 0.60016 (Simulation time: 0 hr 7 min 33 sec) 
Heartbeat CPU  0 instructions:  165000002 cycles:  187371852 heartbeat IPC: 0.60854 cumulative IPC: 0.60028 (Simulation time: 0 hr 7 min 37 sec) 
Heartbeat CPU  0 instructions:  166000003 cycles:  189015494 heartbeat IPC: 0.60841 cumulative IPC: 0.60041 (Simulation time: 0 hr 7 min 40 sec) 
Heartbeat CPU  0 instructions:  167000002 cycles:  190663875 heartbeat IPC: 0.60666 cumulative IPC: 0.60050 (Simulation time: 0 hr 7 min 43 sec) 
Heartbeat CPU  0 instructions:  168000000 cycles:  192312714 heartbeat IPC: 0.60649 cumulative IPC: 0.60058 (Simulation time: 0 hr 7 min 46 sec) 
Heartbeat CPU  0 instructions:  169000001 cycles:  193962129 heartbeat IPC: 0.60628 cumulative IPC: 0.60067 (Simulation time: 0 hr 7 min 49 sec) 
Heartbeat CPU  0 instructions:  170000000 cycles:  195613282 heartbeat IPC: 0.60564 cumulative IPC: 0.60074 (Simulation time: 0 hr 7 min 52 sec) 
Heartbeat CPU  0 instructions:  171000003 cycles:  197265981 heartbeat IPC: 0.60507 cumulative IPC: 0.60080 (Simulation time: 0 hr 7 min 55 sec) 
Heartbeat CPU  0 instructions:  172000000 cycles:  198909131 heartbeat IPC: 0.60859 cumulative IPC: 0.60090 (Simulation time: 0 hr 7 min 58 sec) 
Heartbeat CPU  0 instructions:  173000000 cycles:  200557565 heartbeat IPC: 0.60664 cumulative IPC: 0.60098 (Simulation time: 0 hr 8 min 1 sec) 
Heartbeat CPU  0 instructions:  174000001 cycles:  202201984 heartbeat IPC: 0.60812 cumulative IPC: 0.60108 (Simulation time: 0 hr 8 min 4 sec) 
Heartbeat CPU  0 instructions:  175000003 cycles:  203845990 heartbeat IPC: 0.60827 cumulative IPC: 0.60117 (Simulation time: 0 hr 8 min 8 sec) 
Heartbeat CPU  0 instructions:  176000000 cycles:  205488629 heartbeat IPC: 0.60877 cumulative IPC: 0.60127 (Simulation time: 0 hr 8 min 11 sec) 
Heartbeat CPU  0 instructions:  177000003 cycles:  207137497 heartbeat IPC: 0.60648 cumulative IPC: 0.60134 (Simulation time: 0 hr 8 min 14 sec) 
Heartbeat CPU  0 instructions:  178000001 cycles:  208785659 heartbeat IPC: 0.60674 cumulative IPC: 0.60141 (Simulation time: 0 hr 8 min 17 sec) 
Heartbeat CPU  0 instructions:  179000000 cycles:  210432059 heartbeat IPC: 0.60739 cumulative IPC: 0.60148 (Simulation time: 0 hr 8 min 20 sec) 
Heartbeat CPU  0 instructions:  180000000 cycles:  212087533 heartbeat IPC: 0.60406 cumulative IPC: 0.60151 (Simulation time: 0 hr 8 min 23 sec) 
Heartbeat CPU  0 instructions:  181000000 cycles:  213734716 heartbeat IPC: 0.60710 cumulative IPC: 0.60158 (Simulation time: 0 hr 8 min 26 sec) 
Heartbeat CPU  0 instructions:  182000001 cycles:  215385016 heartbeat IPC: 0.60595 cumulative IPC: 0.60164 (Simulation time: 0 hr 8 min 29 sec) 
Heartbeat CPU  0 instructions:  183000002 cycles:  217037050 heartbeat IPC: 0.60532 cumulative IPC: 0.60168 (Simulation time: 0 hr 8 min 33 sec) 
Heartbeat CPU  0 instructions:  184000000 cycles:  218678139 heartbeat IPC: 0.60935 cumulative IPC: 0.60177 (Simulation time: 0 hr 8 min 36 sec) 
Heartbeat CPU  0 instructions:  185000001 cycles:  220327447 heartbeat IPC: 0.60632 cumulative IPC: 0.60182 (Simulation time: 0 hr 8 min 39 sec) 
Heartbeat CPU  0 instructions:  186000000 cycles:  221975896 heartbeat IPC: 0.60663 cumulative IPC: 0.60188 (Simulation time: 0 hr 8 min 42 sec) 
Heartbeat CPU  0 instructions:  187000000 cycles:  223908659 heartbeat IPC: 0.51739 cumulative IPC: 0.60075 (Simulation time: 0 hr 8 min 45 sec) 
Heartbeat CPU  0 instructions:  188000000 cycles:  225429705 heartbeat IPC: 0.65744 cumulative IPC: 0.60134 (Simulation time: 0 hr 8 min 48 sec) 
Heartbeat CPU  0 instructions:  189000002 cycles:  226917539 heartbeat IPC: 0.67212 cumulative IPC: 0.60205 (Simulation time: 0 hr 8 min 51 sec) 
Heartbeat CPU  0 instructions:  190000003 cycles:  228433355 heartbeat IPC: 0.65971 cumulative IPC: 0.60264 (Simulation time: 0 hr 8 min 54 sec) 
Heartbeat CPU  0 instructions:  191000000 cycles:  229938105 heartbeat IPC: 0.66456 cumulative IPC: 0.60325 (Simulation time: 0 hr 8 min 57 sec) 
Heartbeat CPU  0 instructions:  192000000 cycles:  231432219 heartbeat IPC: 0.66929 cumulative IPC: 0.60390 (Simulation time: 0 hr 9 min 0 sec) 
Heartbeat CPU  0 instructions:  193000001 cycles:  232936948 heartbeat IPC: 0.66457 cumulative IPC: 0.60450 (Simulation time: 0 hr 9 min 3 sec) 
Heartbeat CPU  0 instructions:  194000000 cycles:  234444117 heartbeat IPC: 0.66349 cumulative IPC: 0.60507 (Simulation time: 0 hr 9 min 6 sec) 
Heartbeat CPU  0 instructions:  195000000 cycles:  235956364 heartbeat IPC: 0.66127 cumulative IPC: 0.60561 (Simulation time: 0 hr 9 min 9 sec) 
Heartbeat CPU  0 instructions:  196000000 cycles:  237459067 heartbeat IPC: 0.66547 cumulative IPC: 0.60618 (Simulation time: 0 hr 9 min 12 sec) 
Heartbeat CPU  0 instructions:  197000000 cycles:  238912020 heartbeat IPC: 0.68825 cumulative IPC: 0.60692 (Simulation time: 0 hr 9 min 15 sec) 
Heartbeat CPU  0 instructions:  198000003 cycles:  240398517 heartbeat IPC: 0.67272 cumulative IPC: 0.60753 (Simulation time: 0 hr 9 min 18 sec) 
Heartbeat CPU  0 instructions:  199000001 cycles:  241910687 heartbeat IPC: 0.66130 cumulative IPC: 0.60803 (Simulation time: 0 hr 9 min 21 sec) 
Heartbeat CPU  0 instructions:  200000000 cycles:  243402947 heartbeat IPC: 0.67012 cumulative IPC: 0.60859 (Simulation time: 0 hr 9 min 24 sec) 
Heartbeat CPU  0 instructions:  201000003 cycles:  244891301 heartbeat IPC: 0.67189 cumulative IPC: 0.60916 (Simulation time: 0 hr 9 min 27 sec) 
Heartbeat CPU  0 instructions:  202000000 cycles:  246397200 heartbeat IPC: 0.66405 cumulative IPC: 0.60966 (Simulation time: 0 hr 9 min 30 sec) 
Heartbeat CPU  0 instructions:  203000001 cycles:  247897756 heartbeat IPC: 0.66642 cumulative IPC: 0.61016 (Simulation time: 0 hr 9 min 33 sec) 
Heartbeat CPU  0 instructions:  204000000 cycles:  249404851 heartbeat IPC: 0.66353 cumulative IPC: 0.61063 (Simulation time: 0 hr 9 min 36 sec) 
Heartbeat CPU  0 instructions:  205000000 cycles:  250913851 heartbeat IPC: 0.66269 cumulative IPC: 0.61109 (Simulation time: 0 hr 9 min 39 sec) 
Heartbeat CPU  0 instructions:  206000000 cycles:  252380448 heartbeat IPC: 0.68185 cumulative IPC: 0.61169 (Simulation time: 0 hr 9 min 42 sec) 
Heartbeat CPU  0 instructions:  207000000 cycles:  253892530 heartbeat IPC: 0.66134 cumulative IPC: 0.61212 (Simulation time: 0 hr 9 min 45 sec) 
Heartbeat CPU  0 instructions:  208000000 cycles:  255403832 heartbeat IPC: 0.66168 cumulative IPC: 0.61254 (Simulation time: 0 hr 9 min 48 sec) 
Heartbeat CPU  0 instructions:  209000003 cycles:  256885924 heartbeat IPC: 0.67472 cumulative IPC: 0.61306 (Simulation time: 0 hr 9 min 51 sec) 
Heartbeat CPU  0 instructions:  210000000 cycles:  258408281 heartbeat IPC: 0.65687 cumulative IPC: 0.61343 (Simulation time: 0 hr 9 min 54 sec) 
Heartbeat CPU  0 instructions:  211000003 cycles:  259893079 heartbeat IPC: 0.67349 cumulative IPC: 0.61393 (Simulation time: 0 hr 9 min 57 sec) 
Heartbeat CPU  0 instructions:  212000000 cycles:  261404417 heartbeat IPC: 0.66166 cumulative IPC: 0.61432 (Simulation time: 0 hr 10 min 0 sec) 
Heartbeat CPU  0 instructions:  213000003 cycles:  262918635 heartbeat IPC: 0.66041 cumulative IPC: 0.61470 (Simulation time: 0 hr 10 min 3 sec) 
Heartbeat CPU  0 instructions:  214000000 cycles:  264422670 heartbeat IPC: 0.66488 cumulative IPC: 0.61511 (Simulation time: 0 hr 10 min 6 sec) 
Heartbeat CPU  0 instructions:  215000002 cycles:  265907530 heartbeat IPC: 0.67347 cumulative IPC: 0.61557 (Simulation time: 0 hr 10 min 9 sec) 
Heartbeat CPU  0 instructions:  216000000 cycles:  267405815 heartbeat IPC: 0.66743 cumulative IPC: 0.61599 (Simulation time: 0 hr 10 min 12 sec) 
Heartbeat CPU  0 instructions:  217000001 cycles:  268897887 heartbeat IPC: 0.67021 cumulative IPC: 0.61641 (Simulation time: 0 hr 10 min 15 sec) 
Heartbeat CPU  0 instructions:  218000000 cycles:  270373172 heartbeat IPC: 0.67783 cumulative IPC: 0.61689 (Simulation time: 0 hr 10 min 18 sec) 
Heartbeat CPU  0 instructions:  219000000 cycles:  271878199 heartbeat IPC: 0.66444 cumulative IPC: 0.61726 (Simulation time: 0 hr 10 min 21 sec) 
Heartbeat CPU  0 instructions:  220000000 cycles:  273363338 heartbeat IPC: 0.67334 cumulative IPC: 0.61769 (Simulation time: 0 hr 10 min 24 sec) 
Heartbeat CPU  0 instructions:  221000000 cycles:  274870908 heartbeat IPC: 0.66332 cumulative IPC: 0.61804 (Simulation time: 0 hr 10 min 27 sec) 
Heartbeat CPU  0 instructions:  222000000 cycles:  276363968 heartbeat IPC: 0.66977 cumulative IPC: 0.61843 (Simulation time: 0 hr 10 min 30 sec) 
Heartbeat CPU  0 instructions:  223000003 cycles:  277837084 heartbeat IPC: 0.67884 cumulative IPC: 0.61888 (Simulation time: 0 hr 10 min 33 sec) 
Heartbeat CPU  0 instructions:  224000000 cycles:  279363083 heartbeat IPC: 0.65531 cumulative IPC: 0.61915 (Simulation time: 0 hr 10 min 36 sec) 
Heartbeat CPU  0 instructions:  225000001 cycles:  280862395 heartbeat IPC: 0.66697 cumulative IPC: 0.61951 (Simulation time: 0 hr 10 min 39 sec) 
Heartbeat CPU  0 instructions:  226000002 cycles:  282348846 heartbeat IPC: 0.67274 cumulative IPC: 0.61990 (Simulation time: 0 hr 10 min 42 sec) 
Heartbeat CPU  0 instructions:  227000003 cycles:  283836821 heartbeat IPC: 0.67205 cumulative IPC: 0.62028 (Simulation time: 0 hr 10 min 45 sec) 
Heartbeat CPU  0 instructions:  228000000 cycles:  285332105 heartbeat IPC: 0.66877 cumulative IPC: 0.62063 (Simulation time: 0 hr 10 min 48 sec) 
Heartbeat CPU  0 instructions:  229000000 cycles:  286811116 heartbeat IPC: 0.67613 cumulative IPC: 0.62102 (Simulation time: 0 hr 10 min 51 sec) 
Heartbeat CPU  0 instructions:  230000003 cycles:  288306457 heartbeat IPC: 0.66875 cumulative IPC: 0.62137 (Simulation time: 0 hr 10 min 54 sec) 
Heartbeat CPU  0 instructions:  231000000 cycles:  289786908 heartbeat IPC: 0.67547 cumulative IPC: 0.62175 (Simulation time: 0 hr 10 min 57 sec) 
Heartbeat CPU  0 instructions:  232000000 cycles:  291263395 heartbeat IPC: 0.67728 cumulative IPC: 0.62213 (Simulation time: 0 hr 11 min 0 sec) 
Heartbeat CPU  0 instructions:  233000003 cycles:  292770523 heartbeat IPC: 0.66352 cumulative IPC: 0.62242 (Simulation time: 0 hr 11 min 3 sec) 
Heartbeat CPU  0 instructions:  234000002 cycles:  294239429 heartbeat IPC: 0.68078 cumulative IPC: 0.62282 (Simulation time: 0 hr 11 min 6 sec) 
Heartbeat CPU  0 instructions:  235000001 cycles:  295731072 heartbeat IPC: 0.67040 cumulative IPC: 0.62315 (Simulation time: 0 hr 11 min 9 sec) 
Heartbeat CPU  0 instructions:  236000000 cycles:  297233809 heartbeat IPC: 0.66545 cumulative IPC: 0.62344 (Simulation time: 0 hr 11 min 12 sec) 
Heartbeat CPU  0 instructions:  237000002 cycles:  298709738 heartbeat IPC: 0.67754 cumulative IPC: 0.62380 (Simulation time: 0 hr 11 min 15 sec) 
Heartbeat CPU  0 instructions:  238000000 cycles:  300230625 heartbeat IPC: 0.65751 cumulative IPC: 0.62404 (Simulation time: 0 hr 11 min 18 sec) 
Heartbeat CPU  0 instructions:  239000000 cycles:  301748089 heartbeat IPC: 0.65899 cumulative IPC: 0.62427 (Simulation time: 0 hr 11 min 21 sec) 
Heartbeat CPU  0 instructions:  240000000 cycles:  303212623 heartbeat IPC: 0.68281 cumulative IPC: 0.62466 (Simulation time: 0 hr 11 min 25 sec) 
Heartbeat CPU  0 instructions:  241000002 cycles:  304710298 heartbeat IPC: 0.66770 cumulative IPC: 0.62494 (Simulation time: 0 hr 11 min 28 sec) 
Heartbeat CPU  0 instructions:  242000000 cycles:  306205275 heartbeat IPC: 0.66891 cumulative IPC: 0.62523 (Simulation time: 0 hr 11 min 31 sec) 
Heartbeat CPU  0 instructions:  243000003 cycles:  307666383 heartbeat IPC: 0.68441 cumulative IPC: 0.62561 (Simulation time: 0 hr 11 min 34 sec) 
Heartbeat CPU  0 instructions:  244000000 cycles:  309151109 heartbeat IPC: 0.67352 cumulative IPC: 0.62592 (Simulation time: 0 hr 11 min 37 sec) 
Heartbeat CPU  0 instructions:  245000002 cycles:  310617685 heartbeat IPC: 0.68186 cumulative IPC: 0.62627 (Simulation time: 0 hr 11 min 40 sec) 
Heartbeat CPU  0 instructions:  246000003 cycles:  312098750 heartbeat IPC: 0.67519 cumulative IPC: 0.62659 (Simulation time: 0 hr 11 min 43 sec) 
Heartbeat CPU  0 instructions:  247000002 cycles:  313588516 heartbeat IPC: 0.67125 cumulative IPC: 0.62687 (Simulation time: 0 hr 11 min 46 sec) 
Heartbeat CPU  0 instructions:  248000000 cycles:  315066005 heartbeat IPC: 0.67682 cumulative IPC: 0.62718 (Simulation time: 0 hr 11 min 49 sec) 
Heartbeat CPU  0 instructions:  249000002 cycles:  316577087 heartbeat IPC: 0.66178 cumulative IPC: 0.62740 (Simulation time: 0 hr 11 min 52 sec) 
Heartbeat CPU  0 instructions:  250000003 cycles:  318074051 heartbeat IPC: 0.66802 cumulative IPC: 0.62766 (Simulation time: 0 hr 11 min 55 sec) 
Heartbeat CPU  0 instructions:  251000001 cycles:  319551928 heartbeat IPC: 0.67664 cumulative IPC: 0.62796 (Simulation time: 0 hr 11 min 58 sec) 
Heartbeat CPU  0 instructions:  252000000 cycles:  321037499 heartbeat IPC: 0.67314 cumulative IPC: 0.62823 (Simulation time: 0 hr 12 min 1 sec) 
Heartbeat CPU  0 instructions:  253000000 cycles:  322553952 heartbeat IPC: 0.65943 cumulative IPC: 0.62843 (Simulation time: 0 hr 12 min 4 sec) 
Heartbeat CPU  0 instructions:  254000003 cycles:  324007048 heartbeat IPC: 0.68819 cumulative IPC: 0.62878 (Simulation time: 0 hr 12 min 7 sec) 
Heartbeat CPU  0 instructions:  255000000 cycles:  325493424 heartbeat IPC: 0.67278 cumulative IPC: 0.62905 (Simulation time: 0 hr 12 min 10 sec) 
Heartbeat CPU  0 instructions:  256000000 cycles:  326990077 heartbeat IPC: 0.66816 cumulative IPC: 0.62929 (Simulation time: 0 hr 12 min 13 sec) 
Heartbeat CPU  0 instructions:  257000003 cycles:  328463103 heartbeat IPC: 0.67888 cumulative IPC: 0.62958 (Simulation time: 0 hr 12 min 16 sec) 
Heartbeat CPU  0 instructions:  258000003 cycles:  329942942 heartbeat IPC: 0.67575 cumulative IPC: 0.62985 (Simulation time: 0 hr 12 min 19 sec) 
Heartbeat CPU  0 instructions:  259000002 cycles:  331417277 heartbeat IPC: 0.67827 cumulative IPC: 0.63013 (Simulation time: 0 hr 12 min 22 sec) 
Heartbeat CPU  0 instructions:  260000000 cycles:  332891197 heartbeat IPC: 0.67846 cumulative IPC: 0.63041 (Simulation time: 0 hr 12 min 25 sec) 
Heartbeat CPU  0 instructions:  261000000 cycles:  334389176 heartbeat IPC: 0.66757 cumulative IPC: 0.63063 (Simulation time: 0 hr 12 min 28 sec) 
Heartbeat CPU  0 instructions:  262000001 cycles:  335870281 heartbeat IPC: 0.67517 cumulative IPC: 0.63089 (Simulation time: 0 hr 12 min 31 sec) 
Heartbeat CPU  0 instructions:  263000002 cycles:  337377501 heartbeat IPC: 0.66347 cumulative IPC: 0.63108 (Simulation time: 0 hr 12 min 34 sec) 
Heartbeat CPU  0 instructions:  264000000 cycles:  338885645 heartbeat IPC: 0.66307 cumulative IPC: 0.63126 (Simulation time: 0 hr 12 min 37 sec) 
Heartbeat CPU  0 instructions:  265000003 cycles:  340386483 heartbeat IPC: 0.66630 cumulative IPC: 0.63147 (Simulation time: 0 hr 12 min 40 sec) 
Heartbeat CPU  0 instructions:  266000002 cycles:  341867471 heartbeat IPC: 0.67522 cumulative IPC: 0.63171 (Simulation time: 0 hr 12 min 43 sec) 
Heartbeat CPU  0 instructions:  267000003 cycles:  343389427 heartbeat IPC: 0.65705 cumulative IPC: 0.63186 (Simulation time: 0 hr 12 min 46 sec) 
Heartbeat CPU  0 instructions:  268000000 cycles:  344851075 heartbeat IPC: 0.68416 cumulative IPC: 0.63215 (Simulation time: 0 hr 12 min 49 sec) 
Heartbeat CPU  0 instructions:  269000002 cycles:  346325530 heartbeat IPC: 0.67822 cumulative IPC: 0.63240 (Simulation time: 0 hr 12 min 52 sec) 
Heartbeat CPU  0 instructions:  270000001 cycles:  347831142 heartbeat IPC: 0.66418 cumulative IPC: 0.63258 (Simulation time: 0 hr 12 min 55 sec) 
Heartbeat CPU  0 instructions:  271000000 cycles:  349286969 heartbeat IPC: 0.68689 cumulative IPC: 0.63287 (Simulation time: 0 hr 12 min 58 sec) 
Heartbeat CPU  0 instructions:  272000000 cycles:  350775797 heartbeat IPC: 0.67167 cumulative IPC: 0.63308 (Simulation time: 0 hr 13 min 1 sec) 
Heartbeat CPU  0 instructions:  273000001 cycles:  352271072 heartbeat IPC: 0.66877 cumulative IPC: 0.63328 (Simulation time: 0 hr 13 min 4 sec) 
Heartbeat CPU  0 instructions:  274000000 cycles:  353743454 heartbeat IPC: 0.67917 cumulative IPC: 0.63353 (Simulation time: 0 hr 13 min 7 sec) 
Heartbeat CPU  0 instructions:  275000002 cycles:  355241225 heartbeat IPC: 0.66766 cumulative IPC: 0.63371 (Simulation time: 0 hr 13 min 10 sec) 
Heartbeat CPU  0 instructions:  276000000 cycles:  356724158 heartbeat IPC: 0.67434 cumulative IPC: 0.63393 (Simulation time: 0 hr 13 min 13 sec) 
Heartbeat CPU  0 instructions:  277000001 cycles:  358213596 heartbeat IPC: 0.67139 cumulative IPC: 0.63413 (Simulation time: 0 hr 13 min 16 sec) 
Heartbeat CPU  0 instructions:  278000003 cycles:  359707118 heartbeat IPC: 0.66956 cumulative IPC: 0.63432 (Simulation time: 0 hr 13 min 19 sec) 
Heartbeat CPU  0 instructions:  279000002 cycles:  361178486 heartbeat IPC: 0.67964 cumulative IPC: 0.63455 (Simulation time: 0 hr 13 min 22 sec) 
Heartbeat CPU  0 instructions:  280000000 cycles:  362653623 heartbeat IPC: 0.67790 cumulative IPC: 0.63478 (Simulation time: 0 hr 13 min 25 sec) 
Heartbeat CPU  0 instructions:  281000001 cycles:  364159944 heartbeat IPC: 0.66387 cumulative IPC: 0.63493 (Simulation time: 0 hr 13 min 28 sec) 
Heartbeat CPU  0 instructions:  282000002 cycles:  365627053 heartbeat IPC: 0.68161 cumulative IPC: 0.63517 (Simulation time: 0 hr 13 min 31 sec) 
Heartbeat CPU  0 instructions:  283000001 cycles:  367107621 heartbeat IPC: 0.67542 cumulative IPC: 0.63538 (Simulation time: 0 hr 13 min 34 sec) 
Heartbeat CPU  0 instructions:  284000000 cycles:  368599444 heartbeat IPC: 0.67032 cumulative IPC: 0.63556 (Simulation time: 0 hr 13 min 37 sec) 
Heartbeat CPU  0 instructions:  285000001 cycles:  370065828 heartbeat IPC: 0.68195 cumulative IPC: 0.63579 (Simulation time: 0 hr 13 min 40 sec) 
Heartbeat CPU  0 instructions:  286000002 cycles:  371545677 heartbeat IPC: 0.67575 cumulative IPC: 0.63599 (Simulation time: 0 hr 13 min 43 sec) 
Heartbeat CPU  0 instructions:  287000000 cycles:  373036215 heartbeat IPC: 0.67090 cumulative IPC: 0.63617 (Simulation time: 0 hr 13 min 46 sec) 
Heartbeat CPU  0 instructions:  288000000 cycles:  374511766 heartbeat IPC: 0.67771 cumulative IPC: 0.63638 (Simulation time: 0 hr 13 min 49 sec) 
Heartbeat CPU  0 instructions:  289000003 cycles:  375988701 heartbeat IPC: 0.67708 cumulative IPC: 0.63658 (Simulation time: 0 hr 13 min 52 sec) 
Heartbeat CPU  0 instructions:  290000000 cycles:  377480144 heartbeat IPC: 0.67049 cumulative IPC: 0.63675 (Simulation time: 0 hr 13 min 55 sec) 
Heartbeat CPU  0 instructions:  291000000 cycles:  378948892 heartbeat IPC: 0.68085 cumulative IPC: 0.63697 (Simulation time: 0 hr 13 min 58 sec) 
Heartbeat CPU  0 instructions:  292000000 cycles:  380466945 heartbeat IPC: 0.65874 cumulative IPC: 0.63708 (Simulation time: 0 hr 14 min 1 sec) 
Heartbeat CPU  0 instructions:  293000003 cycles:  381958741 heartbeat IPC: 0.67033 cumulative IPC: 0.63724 (Simulation time: 0 hr 14 min 4 sec) 
Heartbeat CPU  0 instructions:  294000000 cycles:  383422599 heartbeat IPC: 0.68312 cumulative IPC: 0.63746 (Simulation time: 0 hr 14 min 7 sec) 
Heartbeat CPU  0 instructions:  295000001 cycles:  384930006 heartbeat IPC: 0.66339 cumulative IPC: 0.63759 (Simulation time: 0 hr 14 min 10 sec) 
Heartbeat CPU  0 instructions:  296000000 cycles:  386404424 heartbeat IPC: 0.67823 cumulative IPC: 0.63778 (Simulation time: 0 hr 14 min 13 sec) 
Heartbeat CPU  0 instructions:  297000003 cycles:  387881490 heartbeat IPC: 0.67702 cumulative IPC: 0.63797 (Simulation time: 0 hr 14 min 16 sec) 
Heartbeat CPU  0 instructions:  298000000 cycles:  389379795 heartbeat IPC: 0.66742 cumulative IPC: 0.63811 (Simulation time: 0 hr 14 min 19 sec) 
Heartbeat CPU  0 instructions:  299000001 cycles:  390868417 heartbeat IPC: 0.67176 cumulative IPC: 0.63827 (Simulation time: 0 hr 14 min 22 sec) 
Heartbeat CPU  0 instructions:  300000000 cycles:  392351746 heartbeat IPC: 0.67416 cumulative IPC: 0.63844 (Simulation time: 0 hr 14 min 25 sec) 
Heartbeat CPU  0 instructions:  301000002 cycles:  393856987 heartbeat IPC: 0.66435 cumulative IPC: 0.63857 (Simulation time: 0 hr 14 min 28 sec) 
Heartbeat CPU  0 instructions:  302000001 cycles:  395358239 heartbeat IPC: 0.66611 cumulative IPC: 0.63870 (Simulation time: 0 hr 14 min 31 sec) 
Heartbeat CPU  0 instructions:  303000002 cycles:  396838243 heartbeat IPC: 0.67567 cumulative IPC: 0.63887 (Simulation time: 0 hr 14 min 34 sec) 
Heartbeat CPU  0 instructions:  304000000 cycles:  398341747 heartbeat IPC: 0.66511 cumulative IPC: 0.63899 (Simulation time: 0 hr 14 min 37 sec) 
Heartbeat CPU  0 instructions:  305000001 cycles:  399794119 heartbeat IPC: 0.68853 cumulative IPC: 0.63922 (Simulation time: 0 hr 14 min 40 sec) 
Heartbeat CPU  0 instructions:  306000000 cycles:  401287887 heartbeat IPC: 0.66945 cumulative IPC: 0.63936 (Simulation time: 0 hr 14 min 43 sec) 
Heartbeat CPU  0 instructions:  307000000 cycles:  402791310 heartbeat IPC: 0.66515 cumulative IPC: 0.63948 (Simulation time: 0 hr 14 min 46 sec) 
Heartbeat CPU  0 instructions:  308000000 cycles:  404391871 heartbeat IPC: 0.62478 cumulative IPC: 0.63941 (Simulation time: 0 hr 14 min 49 sec) 
Heartbeat CPU  0 instructions:  309000002 cycles:  405742383 heartbeat IPC: 0.74046 cumulative IPC: 0.63982 (Simulation time: 0 hr 14 min 51 sec) 
Heartbeat CPU  0 instructions:  310000000 cycles:  406937729 heartbeat IPC: 0.83658 cumulative IPC: 0.64054 (Simulation time: 0 hr 14 min 54 sec) 
Heartbeat CPU  0 instructions:  311000002 cycles:  408687580 heartbeat IPC: 0.57148 cumulative IPC: 0.64017 (Simulation time: 0 hr 14 min 57 sec) 
Heartbeat CPU  0 instructions:  312000000 cycles:  410249624 heartbeat IPC: 0.64019 cumulative IPC: 0.64017 (Simulation time: 0 hr 15 min 0 sec) 
Heartbeat CPU  0 instructions:  313000003 cycles:  411736059 heartbeat IPC: 0.67275 cumulative IPC: 0.64032 (Simulation time: 0 hr 15 min 3 sec) 
Heartbeat CPU  0 instructions:  314000000 cycles:  413288988 heartbeat IPC: 0.64394 cumulative IPC: 0.64034 (Simulation time: 0 hr 15 min 6 sec) 
Heartbeat CPU  0 instructions:  315000003 cycles:  414778515 heartbeat IPC: 0.67136 cumulative IPC: 0.64047 (Simulation time: 0 hr 15 min 9 sec) 
Heartbeat CPU  0 instructions:  316000000 cycles:  416272022 heartbeat IPC: 0.66956 cumulative IPC: 0.64060 (Simulation time: 0 hr 15 min 12 sec) 
Heartbeat CPU  0 instructions:  317000001 cycles:  417795470 heartbeat IPC: 0.65641 cumulative IPC: 0.64067 (Simulation time: 0 hr 15 min 15 sec) 
Heartbeat CPU  0 instructions:  318000000 cycles:  419299702 heartbeat IPC: 0.66479 cumulative IPC: 0.64078 (Simulation time: 0 hr 15 min 18 sec) 
Heartbeat CPU  0 instructions:  319000000 cycles:  420832775 heartbeat IPC: 0.65228 cumulative IPC: 0.64083 (Simulation time: 0 hr 15 min 21 sec) 
Heartbeat CPU  0 instructions:  320000000 cycles:  422318393 heartbeat IPC: 0.67312 cumulative IPC: 0.64097 (Simulation time: 0 hr 15 min 24 sec) 
Heartbeat CPU  0 instructions:  321000000 cycles:  423797409 heartbeat IPC: 0.67613 cumulative IPC: 0.64112 (Simulation time: 0 hr 15 min 27 sec) 
Heartbeat CPU  0 instructions:  322000003 cycles:  425295281 heartbeat IPC: 0.66762 cumulative IPC: 0.64124 (Simulation time: 0 hr 15 min 30 sec) 
Heartbeat CPU  0 instructions:  323000003 cycles:  426776321 heartbeat IPC: 0.67520 cumulative IPC: 0.64138 (Simulation time: 0 hr 15 min 33 sec) 
Heartbeat CPU  0 instructions:  324000000 cycles:  428301916 heartbeat IPC: 0.65548 cumulative IPC: 0.64144 (Simulation time: 0 hr 15 min 36 sec) 
Heartbeat CPU  0 instructions:  325000003 cycles:  429768354 heartbeat IPC: 0.68193 cumulative IPC: 0.64161 (Simulation time: 0 hr 15 min 39 sec) 
Heartbeat CPU  0 instructions:  326000000 cycles:  431277967 heartbeat IPC: 0.66242 cumulative IPC: 0.64170 (Simulation time: 0 hr 15 min 42 sec) 
Heartbeat CPU  0 instructions:  327000001 cycles:  432808157 heartbeat IPC: 0.65351 cumulative IPC: 0.64175 (Simulation time: 0 hr 15 min 45 sec) 
Heartbeat CPU  0 instructions:  328000000 cycles:  434278496 heartbeat IPC: 0.68011 cumulative IPC: 0.64191 (Simulation time: 0 hr 15 min 48 sec) 
Heartbeat CPU  0 instructions:  329000002 cycles:  435788593 heartbeat IPC: 0.66221 cumulative IPC: 0.64200 (Simulation time: 0 hr 15 min 51 sec) 
Heartbeat CPU  0 instructions:  330000003 cycles:  437268618 heartbeat IPC: 0.67566 cumulative IPC: 0.64214 (Simulation time: 0 hr 15 min 54 sec) 
Heartbeat CPU  0 instructions:  331000003 cycles:  438762016 heartbeat IPC: 0.66961 cumulative IPC: 0.64225 (Simulation time: 0 hr 15 min 57 sec) 
Heartbeat CPU  0 instructions:  332000000 cycles:  440253311 heartbeat IPC: 0.67056 cumulative IPC: 0.64237 (Simulation time: 0 hr 16 min 0 sec) 
Heartbeat CPU  0 instructions:  333000003 cycles:  441732008 heartbeat IPC: 0.67627 cumulative IPC: 0.64251 (Simulation time: 0 hr 16 min 3 sec) 
Heartbeat CPU  0 instructions:  334000000 cycles:  443234728 heartbeat IPC: 0.66546 cumulative IPC: 0.64260 (Simulation time: 0 hr 16 min 6 sec) 
Heartbeat CPU  0 instructions:  335000002 cycles:  444726559 heartbeat IPC: 0.67032 cumulative IPC: 0.64271 (Simulation time: 0 hr 16 min 10 sec) 
Heartbeat CPU  0 instructions:  336000000 cycles:  446239389 heartbeat IPC: 0.66101 cumulative IPC: 0.64279 (Simulation time: 0 hr 16 min 13 sec) 
Heartbeat CPU  0 instructions:  337000000 cycles:  447726314 heartbeat IPC: 0.67253 cumulative IPC: 0.64291 (Simulation time: 0 hr 16 min 16 sec) 
Heartbeat CPU  0 instructions:  338000002 cycles:  449208215 heartbeat IPC: 0.67481 cumulative IPC: 0.64304 (Simulation time: 0 hr 16 min 19 sec) 
Heartbeat CPU  0 instructions:  339000001 cycles:  450732708 heartbeat IPC: 0.65596 cumulative IPC: 0.64309 (Simulation time: 0 hr 16 min 22 sec) 
Heartbeat CPU  0 instructions:  340000000 cycles:  452197491 heartbeat IPC: 0.68269 cumulative IPC: 0.64325 (Simulation time: 0 hr 16 min 25 sec) 
Heartbeat CPU  0 instructions:  341000002 cycles:  453687149 heartbeat IPC: 0.67130 cumulative IPC: 0.64336 (Simulation time: 0 hr 16 min 28 sec) 
Heartbeat CPU  0 instructions:  342000003 cycles:  455186947 heartbeat IPC: 0.66676 cumulative IPC: 0.64345 (Simulation time: 0 hr 16 min 31 sec) 
Heartbeat CPU  0 instructions:  343000000 cycles:  456666699 heartbeat IPC: 0.67579 cumulative IPC: 0.64358 (Simulation time: 0 hr 16 min 34 sec) 
Heartbeat CPU  0 instructions:  344000000 cycles:  458170716 heartbeat IPC: 0.66489 cumulative IPC: 0.64366 (Simulation time: 0 hr 16 min 37 sec) 
Heartbeat CPU  0 instructions:  345000003 cycles:  459656999 heartbeat IPC: 0.67282 cumulative IPC: 0.64378 (Simulation time: 0 hr 16 min 40 sec) 
Heartbeat CPU  0 instructions:  346000000 cycles:  461139913 heartbeat IPC: 0.67435 cumulative IPC: 0.64389 (Simulation time: 0 hr 16 min 43 sec) 
Heartbeat CPU  0 instructions:  347000003 cycles:  462634832 heartbeat IPC: 0.66893 cumulative IPC: 0.64399 (Simulation time: 0 hr 16 min 46 sec) 
Heartbeat CPU  0 instructions:  348000000 cycles:  464099886 heartbeat IPC: 0.68257 cumulative IPC: 0.64414 (Simulation time: 0 hr 16 min 49 sec) 
Heartbeat CPU  0 instructions:  349000000 cycles:  465601119 heartbeat IPC: 0.66612 cumulative IPC: 0.64422 (Simulation time: 0 hr 16 min 52 sec) 
Heartbeat CPU  0 instructions:  350000003 cycles:  467071369 heartbeat IPC: 0.68016 cumulative IPC: 0.64436 (Simulation time: 0 hr 16 min 55 sec) 
Heartbeat CPU  0 instructions:  351000001 cycles:  468584069 heartbeat IPC: 0.66107 cumulative IPC: 0.64443 (Simulation time: 0 hr 16 min 58 sec) 
Heartbeat CPU  0 instructions:  352000000 cycles:  470093488 heartbeat IPC: 0.66251 cumulative IPC: 0.64450 (Simulation time: 0 hr 17 min 1 sec) 
Heartbeat CPU  0 instructions:  353000003 cycles:  471577636 heartbeat IPC: 0.67379 cumulative IPC: 0.64461 (Simulation time: 0 hr 17 min 4 sec) 
Heartbeat CPU  0 instructions:  354000000 cycles:  473079223 heartbeat IPC: 0.66596 cumulative IPC: 0.64469 (Simulation time: 0 hr 17 min 7 sec) 
Heartbeat CPU  0 instructions:  355000000 cycles:  474570663 heartbeat IPC: 0.67049 cumulative IPC: 0.64478 (Simulation time: 0 hr 17 min 10 sec) 
Heartbeat CPU  0 instructions:  356000000 cycles:  476057473 heartbeat IPC: 0.67258 cumulative IPC: 0.64489 (Simulation time: 0 hr 17 min 13 sec) 
Heartbeat CPU  0 instructions:  357000002 cycles:  477587539 heartbeat IPC: 0.65357 cumulative IPC: 0.64492 (Simulation time: 0 hr 17 min 16 sec) 
Heartbeat CPU  0 instructions:  358000003 cycles:  479070083 heartbeat IPC: 0.67452 cumulative IPC: 0.64503 (Simulation time: 0 hr 17 min 19 sec) 
Heartbeat CPU  0 instructions:  359000000 cycles:  480583167 heartbeat IPC: 0.66090 cumulative IPC: 0.64509 (Simulation time: 0 hr 17 min 22 sec) 
Heartbeat CPU  0 instructions:  360000000 cycles:  482087214 heartbeat IPC: 0.66487 cumulative IPC: 0.64517 (Simulation time: 0 hr 17 min 25 sec) 
Heartbeat CPU  0 instructions:  361000002 cycles:  483576883 heartbeat IPC: 0.67129 cumulative IPC: 0.64526 (Simulation time: 0 hr 17 min 28 sec) 
Heartbeat CPU  0 instructions:  362000003 cycles:  485067746 heartbeat IPC: 0.67075 cumulative IPC: 0.64536 (Simulation time: 0 hr 17 min 31 sec) 
Heartbeat CPU  0 instructions:  363000003 cycles:  486549040 heartbeat IPC: 0.67509 cumulative IPC: 0.64546 (Simulation time: 0 hr 17 min 34 sec) 
Heartbeat CPU  0 instructions:  364000000 cycles:  488050265 heartbeat IPC: 0.66612 cumulative IPC: 0.64554 (Simulation time: 0 hr 17 min 37 sec) 
Heartbeat CPU  0 instructions:  365000003 cycles:  489521137 heartbeat IPC: 0.67987 cumulative IPC: 0.64566 (Simulation time: 0 hr 17 min 40 sec) 
Heartbeat CPU  0 instructions:  366000000 cycles:  491026296 heartbeat IPC: 0.66438 cumulative IPC: 0.64573 (Simulation time: 0 hr 17 min 43 sec) 
Heartbeat CPU  0 instructions:  367000001 cycles:  492528452 heartbeat IPC: 0.66571 cumulative IPC: 0.64580 (Simulation time: 0 hr 17 min 46 sec) 
Heartbeat CPU  0 instructions:  368000000 cycles:  493993976 heartbeat IPC: 0.68235 cumulative IPC: 0.64593 (Simulation time: 0 hr 17 min 49 sec) 
Heartbeat CPU  0 instructions:  369000003 cycles:  495493635 heartbeat IPC: 0.66682 cumulative IPC: 0.64601 (Simulation time: 0 hr 17 min 52 sec) 
Heartbeat CPU  0 instructions:  370000000 cycles:  496987715 heartbeat IPC: 0.66931 cumulative IPC: 0.64609 (Simulation time: 0 hr 17 min 55 sec) 
Heartbeat CPU  0 instructions:  371000000 cycles:  498489922 heartbeat IPC: 0.66569 cumulative IPC: 0.64616 (Simulation time: 0 hr 17 min 58 sec) 
Heartbeat CPU  0 instructions:  372000000 cycles:  500010027 heartbeat IPC: 0.65785 cumulative IPC: 0.64620 (Simulation time: 0 hr 18 min 1 sec) 
Heartbeat CPU  0 instructions:  373000000 cycles:  501475605 heartbeat IPC: 0.68232 cumulative IPC: 0.64633 (Simulation time: 0 hr 18 min 4 sec) 
Heartbeat CPU  0 instructions:  374000003 cycles:  502990054 heartbeat IPC: 0.66031 cumulative IPC: 0.64638 (Simulation time: 0 hr 18 min 7 sec) 
Heartbeat CPU  0 instructions:  375000002 cycles:  504449254 heartbeat IPC: 0.68531 cumulative IPC: 0.64651 (Simulation time: 0 hr 18 min 10 sec) 
Heartbeat CPU  0 instructions:  376000000 cycles:  505952862 heartbeat IPC: 0.66507 cumulative IPC: 0.64658 (Simulation time: 0 hr 18 min 13 sec) 
Heartbeat CPU  0 instructions:  377000003 cycles:  507411175 heartbeat IPC: 0.68573 cumulative IPC: 0.64671 (Simulation time: 0 hr 18 min 16 sec) 
Heartbeat CPU  0 instructions:  378000000 cycles:  508889156 heartbeat IPC: 0.67660 cumulative IPC: 0.64681 (Simulation time: 0 hr 18 min 19 sec) 
Heartbeat CPU  0 instructions:  379000001 cycles:  510385661 heartbeat IPC: 0.66822 cumulative IPC: 0.64689 (Simulation time: 0 hr 18 min 22 sec) 
Heartbeat CPU  0 instructions:  380000000 cycles:  511850088 heartbeat IPC: 0.68286 cumulative IPC: 0.64701 (Simulation time: 0 hr 18 min 25 sec) 
Heartbeat CPU  0 instructions:  381000002 cycles:  513340637 heartbeat IPC: 0.67090 cumulative IPC: 0.64709 (Simulation time: 0 hr 18 min 28 sec) 
Heartbeat CPU  0 instructions:  382000003 cycles:  514833626 heartbeat IPC: 0.66980 cumulative IPC: 0.64717 (Simulation time: 0 hr 18 min 31 sec) 
Heartbeat CPU  0 instructions:  383000000 cycles:  516320211 heartbeat IPC: 0.67268 cumulative IPC: 0.64726 (Simulation time: 0 hr 18 min 34 sec) 
Heartbeat CPU  0 instructions:  384000000 cycles:  517839380 heartbeat IPC: 0.65825 cumulative IPC: 0.64729 (Simulation time: 0 hr 18 min 37 sec) 
Heartbeat CPU  0 instructions:  385000003 cycles:  519299826 heartbeat IPC: 0.68472 cumulative IPC: 0.64742 (Simulation time: 0 hr 18 min 40 sec) 
Heartbeat CPU  0 instructions:  386000000 cycles:  520810224 heartbeat IPC: 0.66208 cumulative IPC: 0.64747 (Simulation time: 0 hr 18 min 43 sec) 
Heartbeat CPU  0 instructions:  387000002 cycles:  522273248 heartbeat IPC: 0.68352 cumulative IPC: 0.64759 (Simulation time: 0 hr 18 min 46 sec) 
Heartbeat CPU  0 instructions:  388000000 cycles:  523787257 heartbeat IPC: 0.66050 cumulative IPC: 0.64763 (Simulation time: 0 hr 18 min 49 sec) 
Heartbeat CPU  0 instructions:  389000000 cycles:  525283377 heartbeat IPC: 0.66840 cumulative IPC: 0.64770 (Simulation time: 0 hr 18 min 52 sec) 
Heartbeat CPU  0 instructions:  390000000 cycles:  526752826 heartbeat IPC: 0.68053 cumulative IPC: 0.64781 (Simulation time: 0 hr 18 min 55 sec) 
Heartbeat CPU  0 instructions:  391000003 cycles:  528243567 heartbeat IPC: 0.67081 cumulative IPC: 0.64788 (Simulation time: 0 hr 18 min 58 sec) 
Heartbeat CPU  0 instructions:  392000000 cycles:  529701284 heartbeat IPC: 0.68600 cumulative IPC: 0.64801 (Simulation time: 0 hr 19 min 1 sec) 
Heartbeat CPU  0 instructions:  393000000 cycles:  531183323 heartbeat IPC: 0.67475 cumulative IPC: 0.64810 (Simulation time: 0 hr 19 min 4 sec) 
Heartbeat CPU  0 instructions:  394000000 cycles:  532695369 heartbeat IPC: 0.66136 cumulative IPC: 0.64814 (Simulation time: 0 hr 19 min 7 sec) 
Heartbeat CPU  0 instructions:  395000000 cycles:  534152208 heartbeat IPC: 0.68642 cumulative IPC: 0.64826 (Simulation time: 0 hr 19 min 10 sec) 
Heartbeat CPU  0 instructions:  396000000 cycles:  535666709 heartbeat IPC: 0.66028 cumulative IPC: 0.64830 (Simulation time: 0 hr 19 min 13 sec) 
Heartbeat CPU  0 instructions:  397000000 cycles:  537151759 heartbeat IPC: 0.67338 cumulative IPC: 0.64838 (Simulation time: 0 hr 19 min 16 sec) 
Heartbeat CPU  0 instructions:  398000001 cycles:  538641094 heartbeat IPC: 0.67144 cumulative IPC: 0.64846 (Simulation time: 0 hr 19 min 19 sec) 
Heartbeat CPU  0 instructions:  399000002 cycles:  540154256 heartbeat IPC: 0.66087 cumulative IPC: 0.64850 (Simulation time: 0 hr 19 min 22 sec) 
Heartbeat CPU  0 instructions:  400000000 cycles:  541626063 heartbeat IPC: 0.67944 cumulative IPC: 0.64860 (Simulation time: 0 hr 19 min 25 sec) 
Heartbeat CPU  0 instructions:  401000002 cycles:  543139927 heartbeat IPC: 0.66056 cumulative IPC: 0.64864 (Simulation time: 0 hr 19 min 28 sec) 
Heartbeat CPU  0 instructions:  402000003 cycles:  544602640 heartbeat IPC: 0.68366 cumulative IPC: 0.64875 (Simulation time: 0 hr 19 min 31 sec) 
Heartbeat CPU  0 instructions:  403000000 cycles:  546110387 heartbeat IPC: 0.66324 cumulative IPC: 0.64879 (Simulation time: 0 hr 19 min 34 sec) 
Heartbeat CPU  0 instructions:  404000000 cycles:  547615921 heartbeat IPC: 0.66422 cumulative IPC: 0.64884 (Simulation time: 0 hr 19 min 37 sec) 
Heartbeat CPU  0 instructions:  405000003 cycles:  549096090 heartbeat IPC: 0.67560 cumulative IPC: 0.64893 (Simulation time: 0 hr 19 min 40 sec) 
Heartbeat CPU  0 instructions:  406000000 cycles:  550587998 heartbeat IPC: 0.67028 cumulative IPC: 0.64900 (Simulation time: 0 hr 19 min 43 sec) 
Heartbeat CPU  0 instructions:  407000001 cycles:  552061485 heartbeat IPC: 0.67866 cumulative IPC: 0.64909 (Simulation time: 0 hr 19 min 46 sec) 
Heartbeat CPU  0 instructions:  408000000 cycles:  553539704 heartbeat IPC: 0.67649 cumulative IPC: 0.64917 (Simulation time: 0 hr 19 min 49 sec) 
Heartbeat CPU  0 instructions:  409000002 cycles:  555063225 heartbeat IPC: 0.65638 cumulative IPC: 0.64920 (Simulation time: 0 hr 19 min 52 sec) 
Heartbeat CPU  0 instructions:  410000000 cycles:  556529188 heartbeat IPC: 0.68214 cumulative IPC: 0.64930 (Simulation time: 0 hr 19 min 55 sec) 
Heartbeat CPU  0 instructions:  411000001 cycles:  558036782 heartbeat IPC: 0.66331 cumulative IPC: 0.64934 (Simulation time: 0 hr 19 min 58 sec) 
Heartbeat CPU  0 instructions:  412000000 cycles:  559503269 heartbeat IPC: 0.68190 cumulative IPC: 0.64944 (Simulation time: 0 hr 20 min 1 sec) 
Heartbeat CPU  0 instructions:  413000002 cycles:  561021551 heartbeat IPC: 0.65864 cumulative IPC: 0.64947 (Simulation time: 0 hr 20 min 4 sec) 
Heartbeat CPU  0 instructions:  414000001 cycles:  562512036 heartbeat IPC: 0.67092 cumulative IPC: 0.64954 (Simulation time: 0 hr 20 min 7 sec) 
Heartbeat CPU  0 instructions:  415000002 cycles:  564011143 heartbeat IPC: 0.66706 cumulative IPC: 0.64959 (Simulation time: 0 hr 20 min 10 sec) 
Heartbeat CPU  0 instructions:  416000000 cycles:  565511770 heartbeat IPC: 0.66639 cumulative IPC: 0.64964 (Simulation time: 0 hr 20 min 13 sec) 
Heartbeat CPU  0 instructions:  417000003 cycles:  566980997 heartbeat IPC: 0.68063 cumulative IPC: 0.64973 (Simulation time: 0 hr 20 min 16 sec) 
Heartbeat CPU  0 instructions:  418000000 cycles:  568471244 heartbeat IPC: 0.67103 cumulative IPC: 0.64980 (Simulation time: 0 hr 20 min 19 sec) 
Heartbeat CPU  0 instructions:  419000001 cycles:  569956719 heartbeat IPC: 0.67319 cumulative IPC: 0.64987 (Simulation time: 0 hr 20 min 22 sec) 
Heartbeat CPU  0 instructions:  420000000 cycles:  571421726 heartbeat IPC: 0.68259 cumulative IPC: 0.64997 (Simulation time: 0 hr 20 min 25 sec) 
Heartbeat CPU  0 instructions:  421000000 cycles:  572918109 heartbeat IPC: 0.66828 cumulative IPC: 0.65002 (Simulation time: 0 hr 20 min 28 sec) 
Heartbeat CPU  0 instructions:  422000001 cycles:  574380514 heartbeat IPC: 0.68381 cumulative IPC: 0.65012 (Simulation time: 0 hr 20 min 31 sec) 
Heartbeat CPU  0 instructions:  423000001 cycles:  575870144 heartbeat IPC: 0.67131 cumulative IPC: 0.65019 (Simulation time: 0 hr 20 min 34 sec) 
Heartbeat CPU  0 instructions:  424000000 cycles:  577356031 heartbeat IPC: 0.67300 cumulative IPC: 0.65025 (Simulation time: 0 hr 20 min 37 sec) 
Heartbeat CPU  0 instructions:  425000001 cycles:  578842183 heartbeat IPC: 0.67288 cumulative IPC: 0.65032 (Simulation time: 0 hr 20 min 40 sec) 
Heartbeat CPU  0 instructions:  426000002 cycles:  580349973 heartbeat IPC: 0.66322 cumulative IPC: 0.65036 (Simulation time: 0 hr 20 min 43 sec) 
Heartbeat CPU  0 instructions:  427000000 cycles:  581837701 heartbeat IPC: 0.67216 cumulative IPC: 0.65043 (Simulation time: 0 hr 20 min 46 sec) 
Heartbeat CPU  0 instructions:  428000000 cycles:  583334060 heartbeat IPC: 0.66829 cumulative IPC: 0.65048 (Simulation time: 0 hr 20 min 49 sec) 
Heartbeat CPU  0 instructions:  429000000 cycles:  584812461 heartbeat IPC: 0.67641 cumulative IPC: 0.65055 (Simulation time: 0 hr 20 min 52 sec) 
Heartbeat CPU  0 instructions:  430000000 cycles:  586292633 heartbeat IPC: 0.67560 cumulative IPC: 0.65063 (Simulation time: 0 hr 20 min 55 sec) 
Heartbeat CPU  0 instructions:  431000000 cycles:  588014331 heartbeat IPC: 0.58082 cumulative IPC: 0.65039 (Simulation time: 0 hr 20 min 58 sec) 
Heartbeat CPU  0 instructions:  432000000 cycles:  589684507 heartbeat IPC: 0.59874 cumulative IPC: 0.65022 (Simulation time: 0 hr 21 min 2 sec) 
Heartbeat CPU  0 instructions:  433000001 cycles:  591186195 heartbeat IPC: 0.66592 cumulative IPC: 0.65027 (Simulation time: 0 hr 21 min 5 sec) 
Heartbeat CPU  0 instructions:  434000000 cycles:  592682950 heartbeat IPC: 0.66811 cumulative IPC: 0.65032 (Simulation time: 0 hr 21 min 8 sec) 
Heartbeat CPU  0 instructions:  435000003 cycles:  594154928 heartbeat IPC: 0.67936 cumulative IPC: 0.65040 (Simulation time: 0 hr 21 min 11 sec) 
Heartbeat CPU  0 instructions:  436000000 cycles:  595657460 heartbeat IPC: 0.66554 cumulative IPC: 0.65045 (Simulation time: 0 hr 21 min 14 sec) 
Heartbeat CPU  0 instructions:  437000002 cycles:  597139883 heartbeat IPC: 0.67457 cumulative IPC: 0.65052 (Simulation time: 0 hr 21 min 17 sec) 
Heartbeat CPU  0 instructions:  438000001 cycles:  598627872 heartbeat IPC: 0.67205 cumulative IPC: 0.65058 (Simulation time: 0 hr 21 min 20 sec) 
Heartbeat CPU  0 instructions:  439000000 cycles:  600101270 heartbeat IPC: 0.67870 cumulative IPC: 0.65066 (Simulation time: 0 hr 21 min 23 sec) 
Heartbeat CPU  0 instructions:  440000000 cycles:  601606726 heartbeat IPC: 0.66425 cumulative IPC: 0.65070 (Simulation time: 0 hr 21 min 26 sec) 
Heartbeat CPU  0 instructions:  441000001 cycles:  603111341 heartbeat IPC: 0.66462 cumulative IPC: 0.65074 (Simulation time: 0 hr 21 min 29 sec) 
Heartbeat CPU  0 instructions:  442000000 cycles:  604572319 heartbeat IPC: 0.68447 cumulative IPC: 0.65083 (Simulation time: 0 hr 21 min 32 sec) 
Heartbeat CPU  0 instructions:  443000000 cycles:  606049282 heartbeat IPC: 0.67707 cumulative IPC: 0.65090 (Simulation time: 0 hr 21 min 35 sec) 
Heartbeat CPU  0 instructions:  444000000 cycles:  607563048 heartbeat IPC: 0.66060 cumulative IPC: 0.65093 (Simulation time: 0 hr 21 min 38 sec) 
Heartbeat CPU  0 instructions:  445000002 cycles:  609056428 heartbeat IPC: 0.66962 cumulative IPC: 0.65098 (Simulation time: 0 hr 21 min 41 sec) 
Heartbeat CPU  0 instructions:  446000001 cycles:  610547433 heartbeat IPC: 0.67069 cumulative IPC: 0.65104 (Simulation time: 0 hr 21 min 44 sec) 
Heartbeat CPU  0 instructions:  447000003 cycles:  612019598 heartbeat IPC: 0.67927 cumulative IPC: 0.65112 (Simulation time: 0 hr 21 min 47 sec) 
Heartbeat CPU  0 instructions:  448000000 cycles:  613549339 heartbeat IPC: 0.65370 cumulative IPC: 0.65113 (Simulation time: 0 hr 21 min 50 sec) 
Heartbeat CPU  0 instructions:  449000000 cycles:  615055759 heartbeat IPC: 0.66383 cumulative IPC: 0.65116 (Simulation time: 0 hr 21 min 53 sec) 
Heartbeat CPU  0 instructions:  450000003 cycles:  616515068 heartbeat IPC: 0.68526 cumulative IPC: 0.65125 (Simulation time: 0 hr 21 min 56 sec) 
Heartbeat CPU  0 instructions:  451000000 cycles:  618015183 heartbeat IPC: 0.66661 cumulative IPC: 0.65130 (Simulation time: 0 hr 21 min 59 sec) 
Heartbeat CPU  0 instructions:  452000000 cycles:  619517796 heartbeat IPC: 0.66551 cumulative IPC: 0.65134 (Simulation time: 0 hr 22 min 2 sec) 
Heartbeat CPU  0 instructions:  453000001 cycles:  621002253 heartbeat IPC: 0.67365 cumulative IPC: 0.65140 (Simulation time: 0 hr 22 min 5 sec) 
Heartbeat CPU  0 instructions:  454000000 cycles:  622476073 heartbeat IPC: 0.67851 cumulative IPC: 0.65147 (Simulation time: 0 hr 22 min 8 sec) 
Heartbeat CPU  0 instructions:  455000000 cycles:  623952951 heartbeat IPC: 0.67710 cumulative IPC: 0.65154 (Simulation time: 0 hr 22 min 11 sec) 
Heartbeat CPU  0 instructions:  456000000 cycles:  625453982 heartbeat IPC: 0.66621 cumulative IPC: 0.65158 (Simulation time: 0 hr 22 min 14 sec) 
Heartbeat CPU  0 instructions:  457000002 cycles:  626920531 heartbeat IPC: 0.68187 cumulative IPC: 0.65166 (Simulation time: 0 hr 22 min 17 sec) 
Heartbeat CPU  0 instructions:  458000003 cycles:  628440697 heartbeat IPC: 0.65782 cumulative IPC: 0.65168 (Simulation time: 0 hr 22 min 20 sec) 
Heartbeat CPU  0 instructions:  459000001 cycles:  629907773 heartbeat IPC: 0.68163 cumulative IPC: 0.65176 (Simulation time: 0 hr 22 min 23 sec) 
Heartbeat CPU  0 instructions:  460000000 cycles:  631383515 heartbeat IPC: 0.67762 cumulative IPC: 0.65183 (Simulation time: 0 hr 22 min 26 sec) 
Heartbeat CPU  0 instructions:  461000002 cycles:  632875019 heartbeat IPC: 0.67047 cumulative IPC: 0.65188 (Simulation time: 0 hr 22 min 29 sec) 
Heartbeat CPU  0 instructions:  462000003 cycles:  634339179 heartbeat IPC: 0.68299 cumulative IPC: 0.65196 (Simulation time: 0 hr 22 min 32 sec) 
Heartbeat CPU  0 instructions:  463000002 cycles:  635846534 heartbeat IPC: 0.66341 cumulative IPC: 0.65199 (Simulation time: 0 hr 22 min 35 sec) 
Heartbeat CPU  0 instructions:  464000000 cycles:  637312567 heartbeat IPC: 0.68211 cumulative IPC: 0.65207 (Simulation time: 0 hr 22 min 38 sec) 
Heartbeat CPU  0 instructions:  465000001 cycles:  638794304 heartbeat IPC: 0.67488 cumulative IPC: 0.65213 (Simulation time: 0 hr 22 min 41 sec) 
Heartbeat CPU  0 instructions:  466000000 cycles:  640326263 heartbeat IPC: 0.65276 cumulative IPC: 0.65213 (Simulation time: 0 hr 22 min 44 sec) 
Heartbeat CPU  0 instructions:  467000001 cycles:  641820138 heartbeat IPC: 0.66940 cumulative IPC: 0.65218 (Simulation time: 0 hr 22 min 47 sec) 
Heartbeat CPU  0 instructions:  468000000 cycles:  643306027 heartbeat IPC: 0.67300 cumulative IPC: 0.65223 (Simulation time: 0 hr 22 min 50 sec) 
Heartbeat CPU  0 instructions:  469000002 cycles:  644771910 heartbeat IPC: 0.68218 cumulative IPC: 0.65231 (Simulation time: 0 hr 22 min 53 sec) 
Heartbeat CPU  0 instructions:  470000003 cycles:  646275871 heartbeat IPC: 0.66491 cumulative IPC: 0.65234 (Simulation time: 0 hr 22 min 56 sec) 
Heartbeat CPU  0 instructions:  471000002 cycles:  647787050 heartbeat IPC: 0.66173 cumulative IPC: 0.65237 (Simulation time: 0 hr 22 min 59 sec) 
Heartbeat CPU  0 instructions:  472000000 cycles:  649235217 heartbeat IPC: 0.69053 cumulative IPC: 0.65247 (Simulation time: 0 hr 23 min 2 sec) 
Heartbeat CPU  0 instructions:  473000001 cycles:  650726501 heartbeat IPC: 0.67056 cumulative IPC: 0.65251 (Simulation time: 0 hr 23 min 5 sec) 
Heartbeat CPU  0 instructions:  474000000 cycles:  652238550 heartbeat IPC: 0.66135 cumulative IPC: 0.65254 (Simulation time: 0 hr 23 min 8 sec) 
Heartbeat CPU  0 instructions:  475000001 cycles:  653723437 heartbeat IPC: 0.67345 cumulative IPC: 0.65259 (Simulation time: 0 hr 23 min 11 sec) 
Heartbeat CPU  0 instructions:  476000000 cycles:  655227525 heartbeat IPC: 0.66485 cumulative IPC: 0.65262 (Simulation time: 0 hr 23 min 14 sec) 
Heartbeat CPU  0 instructions:  477000003 cycles:  656687810 heartbeat IPC: 0.68480 cumulative IPC: 0.65270 (Simulation time: 0 hr 23 min 17 sec) 
Heartbeat CPU  0 instructions:  478000002 cycles:  658223376 heartbeat IPC: 0.65123 cumulative IPC: 0.65270 (Simulation time: 0 hr 23 min 20 sec) 
Heartbeat CPU  0 instructions:  479000003 cycles:  659686464 heartbeat IPC: 0.68349 cumulative IPC: 0.65278 (Simulation time: 0 hr 23 min 23 sec) 
Heartbeat CPU  0 instructions:  480000000 cycles:  661161464 heartbeat IPC: 0.67796 cumulative IPC: 0.65284 (Simulation time: 0 hr 23 min 26 sec) 
Heartbeat CPU  0 instructions:  481000000 cycles:  662649254 heartbeat IPC: 0.67214 cumulative IPC: 0.65289 (Simulation time: 0 hr 23 min 29 sec) 
Heartbeat CPU  0 instructions:  482000003 cycles:  664099727 heartbeat IPC: 0.68943 cumulative IPC: 0.65298 (Simulation time: 0 hr 23 min 32 sec) 
Heartbeat CPU  0 instructions:  483000000 cycles:  665591805 heartbeat IPC: 0.67020 cumulative IPC: 0.65302 (Simulation time: 0 hr 23 min 35 sec) 
Heartbeat CPU  0 instructions:  484000000 cycles:  667077770 heartbeat IPC: 0.67296 cumulative IPC: 0.65307 (Simulation time: 0 hr 23 min 38 sec) 
Heartbeat CPU  0 instructions:  485000001 cycles:  668599114 heartbeat IPC: 0.65731 cumulative IPC: 0.65309 (Simulation time: 0 hr 23 min 41 sec) 
Heartbeat CPU  0 instructions:  486000000 cycles:  670091889 heartbeat IPC: 0.66989 cumulative IPC: 0.65313 (Simulation time: 0 hr 23 min 44 sec) 
Heartbeat CPU  0 instructions:  487000001 cycles:  671547191 heartbeat IPC: 0.68714 cumulative IPC: 0.65321 (Simulation time: 0 hr 23 min 47 sec) 
Heartbeat CPU  0 instructions:  488000000 cycles:  673062522 heartbeat IPC: 0.65992 cumulative IPC: 0.65323 (Simulation time: 0 hr 23 min 50 sec) 
Heartbeat CPU  0 instructions:  489000002 cycles:  674552987 heartbeat IPC: 0.67093 cumulative IPC: 0.65327 (Simulation time: 0 hr 23 min 53 sec) 
Heartbeat CPU  0 instructions:  490000001 cycles:  676030482 heartbeat IPC: 0.67682 cumulative IPC: 0.65333 (Simulation time: 0 hr 23 min 56 sec) 
Heartbeat CPU  0 instructions:  491000001 cycles:  677525234 heartbeat IPC: 0.66901 cumulative IPC: 0.65337 (Simulation time: 0 hr 23 min 59 sec) 
Heartbeat CPU  0 instructions:  492000000 cycles:  679006036 heartbeat IPC: 0.67531 cumulative IPC: 0.65342 (Simulation time: 0 hr 24 min 2 sec) 
Heartbeat CPU  0 instructions:  493000003 cycles:  680521054 heartbeat IPC: 0.66006 cumulative IPC: 0.65344 (Simulation time: 0 hr 24 min 5 sec) 
Heartbeat CPU  0 instructions:  494000001 cycles:  682001665 heartbeat IPC: 0.67540 cumulative IPC: 0.65350 (Simulation time: 0 hr 24 min 8 sec) 
Heartbeat CPU  0 instructions:  495000000 cycles:  683485365 heartbeat IPC: 0.67399 cumulative IPC: 0.65355 (Simulation time: 0 hr 24 min 11 sec) 
Heartbeat CPU  0 instructions:  496000000 cycles:  685020522 heartbeat IPC: 0.65140 cumulative IPC: 0.65354 (Simulation time: 0 hr 24 min 14 sec) 
Heartbeat CPU  0 instructions:  497000002 cycles:  686495804 heartbeat IPC: 0.67784 cumulative IPC: 0.65360 (Simulation time: 0 hr 24 min 17 sec) 
Heartbeat CPU  0 instructions:  498000000 cycles:  687981748 heartbeat IPC: 0.67297 cumulative IPC: 0.65365 (Simulation time: 0 hr 24 min 20 sec) 
Heartbeat CPU  0 instructions:  499000001 cycles:  689455469 heartbeat IPC: 0.67856 cumulative IPC: 0.65371 (Simulation time: 0 hr 24 min 23 sec) 
Heartbeat CPU  0 instructions:  500000000 cycles:  690971470 heartbeat IPC: 0.65963 cumulative IPC: 0.65372 (Simulation time: 0 hr 24 min 26 sec) 
Heartbeat CPU  0 instructions:  501000000 cycles:  692456691 heartbeat IPC: 0.67330 cumulative IPC: 0.65377 (Simulation time: 0 hr 24 min 29 sec) 
Heartbeat CPU  0 instructions:  502000003 cycles:  693913868 heartbeat IPC: 0.68626 cumulative IPC: 0.65385 (Simulation time: 0 hr 24 min 32 sec) 
Heartbeat CPU  0 instructions:  503000003 cycles:  695419253 heartbeat IPC: 0.66428 cumulative IPC: 0.65387 (Simulation time: 0 hr 24 min 35 sec) 
Heartbeat CPU  0 instructions:  504000000 cycles:  696933112 heartbeat IPC: 0.66056 cumulative IPC: 0.65389 (Simulation time: 0 hr 24 min 38 sec) 
Heartbeat CPU  0 instructions:  505000001 cycles:  698417193 heartbeat IPC: 0.67382 cumulative IPC: 0.65394 (Simulation time: 0 hr 24 min 41 sec) 
Heartbeat CPU  0 instructions:  506000001 cycles:  699904041 heartbeat IPC: 0.67256 cumulative IPC: 0.65398 (Simulation time: 0 hr 24 min 45 sec) 
Heartbeat CPU  0 instructions:  507000003 cycles:  701370404 heartbeat IPC: 0.68196 cumulative IPC: 0.65405 (Simulation time: 0 hr 24 min 48 sec) 
Heartbeat CPU  0 instructions:  508000000 cycles:  702856491 heartbeat IPC: 0.67291 cumulative IPC: 0.65409 (Simulation time: 0 hr 24 min 51 sec) 
Heartbeat CPU  0 instructions:  509000000 cycles:  704329039 heartbeat IPC: 0.67910 cumulative IPC: 0.65415 (Simulation time: 0 hr 24 min 54 sec) 
Heartbeat CPU  0 instructions:  510000002 cycles:  705833146 heartbeat IPC: 0.66485 cumulative IPC: 0.65418 (Simulation time: 0 hr 24 min 57 sec) 
Heartbeat CPU  0 instructions:  511000003 cycles:  707348728 heartbeat IPC: 0.65981 cumulative IPC: 0.65419 (Simulation time: 0 hr 25 min 0 sec) 
Heartbeat CPU  0 instructions:  512000000 cycles:  708836957 heartbeat IPC: 0.67194 cumulative IPC: 0.65423 (Simulation time: 0 hr 25 min 3 sec) 
Heartbeat CPU  0 instructions:  513000001 cycles:  710330122 heartbeat IPC: 0.66972 cumulative IPC: 0.65427 (Simulation time: 0 hr 25 min 6 sec) 
Heartbeat CPU  0 instructions:  514000003 cycles:  711811380 heartbeat IPC: 0.67510 cumulative IPC: 0.65432 (Simulation time: 0 hr 25 min 9 sec) 
Heartbeat CPU  0 instructions:  515000002 cycles:  713330492 heartbeat IPC: 0.65828 cumulative IPC: 0.65433 (Simulation time: 0 hr 25 min 12 sec) 
Heartbeat CPU  0 instructions:  516000000 cycles:  714817508 heartbeat IPC: 0.67249 cumulative IPC: 0.65437 (Simulation time: 0 hr 25 min 15 sec) 
Heartbeat CPU  0 instructions:  517000001 cycles:  716289945 heartbeat IPC: 0.67915 cumulative IPC: 0.65443 (Simulation time: 0 hr 25 min 18 sec) 
Heartbeat CPU  0 instructions:  518000000 cycles:  717840971 heartbeat IPC: 0.64473 cumulative IPC: 0.65440 (Simulation time: 0 hr 25 min 21 sec) 
Heartbeat CPU  0 instructions:  519000003 cycles:  719339452 heartbeat IPC: 0.66734 cumulative IPC: 0.65443 (Simulation time: 0 hr 25 min 24 sec) 
Heartbeat CPU  0 instructions:  520000000 cycles:  720819072 heartbeat IPC: 0.67585 cumulative IPC: 0.65448 (Simulation time: 0 hr 25 min 27 sec) 
Heartbeat CPU  0 instructions:  521000000 cycles:  722343123 heartbeat IPC: 0.65615 cumulative IPC: 0.65449 (Simulation time: 0 hr 25 min 30 sec) 
Heartbeat CPU  0 instructions:  522000003 cycles:  723861985 heartbeat IPC: 0.65839 cumulative IPC: 0.65449 (Simulation time: 0 hr 25 min 33 sec) 
Heartbeat CPU  0 instructions:  523000002 cycles:  725388955 heartbeat IPC: 0.65489 cumulative IPC: 0.65450 (Simulation time: 0 hr 25 min 36 sec) 
Heartbeat CPU  0 instructions:  524000000 cycles:  726855670 heartbeat IPC: 0.68179 cumulative IPC: 0.65456 (Simulation time: 0 hr 25 min 39 sec) 
Heartbeat CPU  0 instructions:  525000001 cycles:  728338164 heartbeat IPC: 0.67454 cumulative IPC: 0.65460 (Simulation time: 0 hr 25 min 42 sec) 
Heartbeat CPU  0 instructions:  526000000 cycles:  729874286 heartbeat IPC: 0.65099 cumulative IPC: 0.65459 (Simulation time: 0 hr 25 min 45 sec) 
Heartbeat CPU  0 instructions:  527000002 cycles:  731342105 heartbeat IPC: 0.68128 cumulative IPC: 0.65465 (Simulation time: 0 hr 25 min 48 sec) 
Heartbeat CPU  0 instructions:  528000000 cycles:  732834505 heartbeat IPC: 0.67006 cumulative IPC: 0.65469 (Simulation time: 0 hr 25 min 51 sec) 
Heartbeat CPU  0 instructions:  529000002 cycles:  734305842 heartbeat IPC: 0.67966 cumulative IPC: 0.65475 (Simulation time: 0 hr 25 min 54 sec) 
Heartbeat CPU  0 instructions:  530000002 cycles:  735797400 heartbeat IPC: 0.67044 cumulative IPC: 0.65478 (Simulation time: 0 hr 25 min 57 sec) 
Heartbeat CPU  0 instructions:  531000002 cycles:  737288205 heartbeat IPC: 0.67078 cumulative IPC: 0.65482 (Simulation time: 0 hr 26 min 0 sec) 
Heartbeat CPU  0 instructions:  532000000 cycles:  738766657 heartbeat IPC: 0.67638 cumulative IPC: 0.65487 (Simulation time: 0 hr 26 min 3 sec) 
Heartbeat CPU  0 instructions:  533000000 cycles:  740259220 heartbeat IPC: 0.66999 cumulative IPC: 0.65490 (Simulation time: 0 hr 26 min 6 sec) 
Heartbeat CPU  0 instructions:  534000003 cycles:  741742588 heartbeat IPC: 0.67414 cumulative IPC: 0.65494 (Simulation time: 0 hr 26 min 9 sec) 
Heartbeat CPU  0 instructions:  535000003 cycles:  743232663 heartbeat IPC: 0.67111 cumulative IPC: 0.65498 (Simulation time: 0 hr 26 min 12 sec) 
Heartbeat CPU  0 instructions:  536000000 cycles:  744720191 heartbeat IPC: 0.67225 cumulative IPC: 0.65502 (Simulation time: 0 hr 26 min 15 sec) 
Heartbeat CPU  0 instructions:  537000001 cycles:  746210967 heartbeat IPC: 0.67079 cumulative IPC: 0.65505 (Simulation time: 0 hr 26 min 18 sec) 
Heartbeat CPU  0 instructions:  538000000 cycles:  747712132 heartbeat IPC: 0.66615 cumulative IPC: 0.65508 (Simulation time: 0 hr 26 min 21 sec) 
Heartbeat CPU  0 instructions:  539000000 cycles:  749286388 heartbeat IPC: 0.63522 cumulative IPC: 0.65503 (Simulation time: 0 hr 26 min 24 sec) 
Heartbeat CPU  0 instructions:  540000000 cycles:  750650029 heartbeat IPC: 0.73333 cumulative IPC: 0.65519 (Simulation time: 0 hr 26 min 27 sec) 
Heartbeat CPU  0 instructions:  541000002 cycles:  751767915 heartbeat IPC: 0.89455 cumulative IPC: 0.65559 (Simulation time: 0 hr 26 min 29 sec) 
Heartbeat CPU  0 instructions:  542000000 cycles:  752885113 heartbeat IPC: 0.89509 cumulative IPC: 0.65599 (Simulation time: 0 hr 26 min 32 sec) 
Heartbeat CPU  0 instructions:  543000002 cycles:  754756982 heartbeat IPC: 0.53423 cumulative IPC: 0.65565 (Simulation time: 0 hr 26 min 35 sec) 
Heartbeat CPU  0 instructions:  544000000 cycles:  756240820 heartbeat IPC: 0.67393 cumulative IPC: 0.65569 (Simulation time: 0 hr 26 min 38 sec) 
Heartbeat CPU  0 instructions:  545000002 cycles:  757700362 heartbeat IPC: 0.68515 cumulative IPC: 0.65575 (Simulation time: 0 hr 26 min 41 sec) 
Heartbeat CPU  0 instructions:  546000002 cycles:  759168482 heartbeat IPC: 0.68114 cumulative IPC: 0.65581 (Simulation time: 0 hr 26 min 44 sec) 
Heartbeat CPU  0 instructions:  547000000 cycles:  760627715 heartbeat IPC: 0.68529 cumulative IPC: 0.65587 (Simulation time: 0 hr 26 min 47 sec) 
Heartbeat CPU  0 instructions:  548000000 cycles:  762088553 heartbeat IPC: 0.68454 cumulative IPC: 0.65593 (Simulation time: 0 hr 26 min 50 sec) 
Heartbeat CPU  0 instructions:  549000002 cycles:  763579183 heartbeat IPC: 0.67086 cumulative IPC: 0.65596 (Simulation time: 0 hr 26 min 53 sec) 
Heartbeat CPU  0 instructions:  550000000 cycles:  765039393 heartbeat IPC: 0.68483 cumulative IPC: 0.65602 (Simulation time: 0 hr 26 min 56 sec) 
Heartbeat CPU  0 instructions:  551000000 cycles:  766495753 heartbeat IPC: 0.68664 cumulative IPC: 0.65609 (Simulation time: 0 hr 26 min 59 sec) 
Heartbeat CPU  0 instructions:  552000000 cycles:  767986777 heartbeat IPC: 0.67068 cumulative IPC: 0.65612 (Simulation time: 0 hr 27 min 2 sec) 
Heartbeat CPU  0 instructions:  553000001 cycles:  769450359 heartbeat IPC: 0.68326 cumulative IPC: 0.65618 (Simulation time: 0 hr 27 min 5 sec) 
Heartbeat CPU  0 instructions:  554000002 cycles:  770917833 heartbeat IPC: 0.68144 cumulative IPC: 0.65623 (Simulation time: 0 hr 27 min 8 sec) 
Heartbeat CPU  0 instructions:  555000000 cycles:  772378146 heartbeat IPC: 0.68478 cumulative IPC: 0.65629 (Simulation time: 0 hr 27 min 11 sec) 
Heartbeat CPU  0 instructions:  556000000 cycles:  773827003 heartbeat IPC: 0.69020 cumulative IPC: 0.65636 (Simulation time: 0 hr 27 min 14 sec) 
Heartbeat CPU  0 instructions:  557000001 cycles:  775299315 heartbeat IPC: 0.67920 cumulative IPC: 0.65641 (Simulation time: 0 hr 27 min 17 sec) 
Heartbeat CPU  0 instructions:  558000003 cycles:  776767277 heartbeat IPC: 0.68122 cumulative IPC: 0.65646 (Simulation time: 0 hr 27 min 20 sec) 
Heartbeat CPU  0 instructions:  559000000 cycles:  778214093 heartbeat IPC: 0.69117 cumulative IPC: 0.65654 (Simulation time: 0 hr 27 min 23 sec) 
Heartbeat CPU  0 instructions:  560000000 cycles:  779667283 heartbeat IPC: 0.68814 cumulative IPC: 0.65660 (Simulation time: 0 hr 27 min 26 sec) 
Heartbeat CPU  0 instructions:  561000000 cycles:  781132916 heartbeat IPC: 0.68230 cumulative IPC: 0.65665 (Simulation time: 0 hr 27 min 29 sec) 
Heartbeat CPU  0 instructions:  562000003 cycles:  782577224 heartbeat IPC: 0.69238 cumulative IPC: 0.65673 (Simulation time: 0 hr 27 min 32 sec) 
Heartbeat CPU  0 instructions:  563000003 cycles:  784029814 heartbeat IPC: 0.68843 cumulative IPC: 0.65679 (Simulation time: 0 hr 27 min 35 sec) 
Heartbeat CPU  0 instructions:  564000000 cycles:  785479111 heartbeat IPC: 0.68999 cumulative IPC: 0.65686 (Simulation time: 0 hr 27 min 38 sec) 
Heartbeat CPU  0 instructions:  565000001 cycles:  786923133 heartbeat IPC: 0.69251 cumulative IPC: 0.65693 (Simulation time: 0 hr 27 min 41 sec) 
Heartbeat CPU  0 instructions:  566000001 cycles:  788384308 heartbeat IPC: 0.68438 cumulative IPC: 0.65699 (Simulation time: 0 hr 27 min 44 sec) 
Heartbeat CPU  0 instructions:  567000000 cycles:  789840259 heartbeat IPC: 0.68684 cumulative IPC: 0.65705 (Simulation time: 0 hr 27 min 47 sec) 
Heartbeat CPU  0 instructions:  568000000 cycles:  791294094 heartbeat IPC: 0.68784 cumulative IPC: 0.65711 (Simulation time: 0 hr 27 min 50 sec) 
Heartbeat CPU  0 instructions:  569000003 cycles:  792747127 heartbeat IPC: 0.68822 cumulative IPC: 0.65718 (Simulation time: 0 hr 27 min 53 sec) 
Heartbeat CPU  0 instructions:  570000000 cycles:  794232290 heartbeat IPC: 0.67332 cumulative IPC: 0.65721 (Simulation time: 0 hr 27 min 56 sec) 
Heartbeat CPU  0 instructions:  571000000 cycles:  795689844 heartbeat IPC: 0.68608 cumulative IPC: 0.65727 (Simulation time: 0 hr 27 min 59 sec) 
Heartbeat CPU  0 instructions:  572000000 cycles:  797140868 heartbeat IPC: 0.68917 cumulative IPC: 0.65733 (Simulation time: 0 hr 28 min 2 sec) 
Heartbeat CPU  0 instructions:  573000000 cycles:  798593741 heartbeat IPC: 0.68829 cumulative IPC: 0.65740 (Simulation time: 0 hr 28 min 5 sec) 
Heartbeat CPU  0 instructions:  574000001 cycles:  800048440 heartbeat IPC: 0.68743 cumulative IPC: 0.65746 (Simulation time: 0 hr 28 min 8 sec) 
Heartbeat CPU  0 instructions:  575000001 cycles:  801517355 heartbeat IPC: 0.68077 cumulative IPC: 0.65751 (Simulation time: 0 hr 28 min 11 sec) 
Heartbeat CPU  0 instructions:  576000000 cycles:  802972572 heartbeat IPC: 0.68718 cumulative IPC: 0.65756 (Simulation time: 0 hr 28 min 14 sec) 
Heartbeat CPU  0 instructions:  577000001 cycles:  804426172 heartbeat IPC: 0.68795 cumulative IPC: 0.65763 (Simulation time: 0 hr 28 min 17 sec) 
Heartbeat CPU  0 instructions:  578000001 cycles:  805889230 heartbeat IPC: 0.68350 cumulative IPC: 0.65768 (Simulation time: 0 hr 28 min 20 sec) 
Heartbeat CPU  0 instructions:  579000000 cycles:  807391355 heartbeat IPC: 0.66572 cumulative IPC: 0.65769 (Simulation time: 0 hr 28 min 23 sec) 
Heartbeat CPU  0 instructions:  580000000 cycles:  808847939 heartbeat IPC: 0.68654 cumulative IPC: 0.65775 (Simulation time: 0 hr 28 min 26 sec) 
Heartbeat CPU  0 instructions:  581000002 cycles:  810296414 heartbeat IPC: 0.69038 cumulative IPC: 0.65782 (Simulation time: 0 hr 28 min 29 sec) 
Heartbeat CPU  0 instructions:  582000000 cycles:  811760491 heartbeat IPC: 0.68302 cumulative IPC: 0.65787 (Simulation time: 0 hr 28 min 32 sec) 
Heartbeat CPU  0 instructions:  583000000 cycles:  813211816 heartbeat IPC: 0.68903 cumulative IPC: 0.65793 (Simulation time: 0 hr 28 min 35 sec) 
Heartbeat CPU  0 instructions:  584000000 cycles:  814657618 heartbeat IPC: 0.69166 cumulative IPC: 0.65800 (Simulation time: 0 hr 28 min 38 sec) 
Heartbeat CPU  0 instructions:  585000003 cycles:  816114903 heartbeat IPC: 0.68621 cumulative IPC: 0.65805 (Simulation time: 0 hr 28 min 41 sec) 
Heartbeat CPU  0 instructions:  586000000 cycles:  817562833 heartbeat IPC: 0.69064 cumulative IPC: 0.65811 (Simulation time: 0 hr 28 min 44 sec) 
Heartbeat CPU  0 instructions:  587000001 cycles:  819010524 heartbeat IPC: 0.69076 cumulative IPC: 0.65818 (Simulation time: 0 hr 28 min 47 sec) 
Heartbeat CPU  0 instructions:  588000000 cycles:  820506817 heartbeat IPC: 0.66832 cumulative IPC: 0.65820 (Simulation time: 0 hr 28 min 50 sec) 
Heartbeat CPU  0 instructions:  589000000 cycles:  821960260 heartbeat IPC: 0.68802 cumulative IPC: 0.65826 (Simulation time: 0 hr 28 min 53 sec) 
Heartbeat CPU  0 instructions:  590000003 cycles:  823430024 heartbeat IPC: 0.68038 cumulative IPC: 0.65830 (Simulation time: 0 hr 28 min 56 sec) 
Heartbeat CPU  0 instructions:  591000002 cycles:  824893201 heartbeat IPC: 0.68344 cumulative IPC: 0.65835 (Simulation time: 0 hr 28 min 59 sec) 
Heartbeat CPU  0 instructions:  592000000 cycles:  826348244 heartbeat IPC: 0.68726 cumulative IPC: 0.65841 (Simulation time: 0 hr 29 min 2 sec) 
Heartbeat CPU  0 instructions:  593000001 cycles:  827813756 heartbeat IPC: 0.68236 cumulative IPC: 0.65845 (Simulation time: 0 hr 29 min 5 sec) 
Heartbeat CPU  0 instructions:  594000000 cycles:  829273866 heartbeat IPC: 0.68488 cumulative IPC: 0.65851 (Simulation time: 0 hr 29 min 8 sec) 
Heartbeat CPU  0 instructions:  595000000 cycles:  830722443 heartbeat IPC: 0.69033 cumulative IPC: 0.65857 (Simulation time: 0 hr 29 min 11 sec) 
Heartbeat CPU  0 instructions:  596000000 cycles:  832177661 heartbeat IPC: 0.68718 cumulative IPC: 0.65862 (Simulation time: 0 hr 29 min 14 sec) 
Heartbeat CPU  0 instructions:  597000003 cycles:  833645412 heartbeat IPC: 0.68132 cumulative IPC: 0.65867 (Simulation time: 0 hr 29 min 17 sec) 
Heartbeat CPU  0 instructions:  598000002 cycles:  835095354 heartbeat IPC: 0.68968 cumulative IPC: 0.65873 (Simulation time: 0 hr 29 min 20 sec) 
Heartbeat CPU  0 instructions:  599000003 cycles:  836544005 heartbeat IPC: 0.69030 cumulative IPC: 0.65879 (Simulation time: 0 hr 29 min 23 sec) 
Heartbeat CPU  0 instructions:  600000000 cycles:  837999304 heartbeat IPC: 0.68714 cumulative IPC: 0.65884 (Simulation time: 0 hr 29 min 26 sec) 
Finished CPU 0 instructions: 500000000 cycles: 758909542 cumulative IPC: 0.65884 (Simulation time: 0 hr 29 min 26 sec) 

ChampSim completed all CPUs

[ROI Statistics]
Core_0_instructions 500000000
Core_0_cycles 758909542
Core_0_IPC 0.65884

Core_0_branch_prediction_accuracy 99.58640
Core_0_branch_MPKI 0.02120
Core_0_average_ROB_occupancy_at_mispredict 244.45477

Core_0_L1D_total_access 288435685
Core_0_L1D_total_hit 284125338
Core_0_L1D_total_miss 4310347
Core_0_L1D_loads 257457202
Core_0_L1D_load_hit 253147753
Core_0_L1D_load_miss 4309449
Core_0_L1D_RFOs 30978483
Core_0_L1D_RFO_hit 30977585
Core_0_L1D_RFO_miss 898
Core_0_L1D_prefetches 0
Core_0_L1D_prefetch_hit 0
Core_0_L1D_prefetch_miss 0
Core_0_L1D_writebacks 0
Core_0_L1D_writeback_hit 0
Core_0_L1D_writeback_miss 0
Core_0_L1D_prefetch_requested 0
Core_0_L1D_prefetch_dropped 0
Core_0_L1D_prefetch_issued 0
Core_0_L1D_prefetch_filled 0
Core_0_L1D_prefetch_useful 0
Core_0_L1D_prefetch_useless 0
Core_0_L1D_prefetch_late 0
Core_0_L1D_average_miss_latency 37.92014

Core_0_L1D_rq_access 307605990
Core_0_L1D_rq_forward 0
Core_0_L1D_rq_merged 50093854
Core_0_L1D_rq_to_cache 257488649
Core_0_L1D_rq_full 0

Core_0_L1D_wq_access 30978597
Core_0_L1D_wq_forward 23487
Core_0_L1D_wq_merged 0
Core_0_L1D_wq_to_cache 30978597
Core_0_L1D_wq_full 0

Core_0_L1D_pq_access 0
Core_0_L1D_pq_forward 0
Core_0_L1D_pq_merged 0
Core_0_L1D_pq_to_cache 0
Core_0_L1D_pq_full 0

Core_0_L1D_acc_epochs 805194
Core_0_L1D_acc_level_0 805194
Core_0_L1D_acc_level_1 0
Core_0_L1D_acc_level_2 0
Core_0_L1D_acc_level_3 0
Core_0_L1D_acc_level_4 0
Core_0_L1D_acc_level_5 0
Core_0_L1D_acc_level_6 0
Core_0_L1D_acc_level_7 0
Core_0_L1D_acc_level_8 0
Core_0_L1D_acc_level_9 0

Core_0_L1I_total_access 133901847
Core_0_L1I_total_hit 133901670
Core_0_L1I_total_miss 177
Core_0_L1I_loads 133901847
Core_0_L1I_load_hit 133901670
Core_0_L1I_load_miss 177
Core_0_L1I_RFOs 0
Core_0_L1I_RFO_hit 0
Core_0_L1I_RFO_miss 0
Core_0_L1I_prefetches 0
Core_0_L1I_prefetch_hit 0
Core_0_L1I_prefetch_miss 0
Core_0_L1I_writebacks 0
Core_0_L1I_writeback_hit 0
Core_0_L1I_writeback_miss 0
Core_0_L1I_prefetch_requested 0
Core_0_L1I_prefetch_dropped 0
Core_0_L1I_prefetch_issued 0
Core_0_L1I_prefetch_filled 0
Core_0_L1I_prefetch_useful 0
Core_0_L1I_prefetch_useless 0
Core_0_L1I_prefetch_late 0
Core_0_L1I_average_miss_latency 248.94915

Core_0_L1I_rq_access 500000003
Core_0_L1I_rq_forward 0
Core_0_L1I_rq_merged 366098083
Core_0_L1I_rq_to_cache 133901920
Core_0_L1I_rq_full 0

Core_0_L1I_wq_access 0
Core_0_L1I_wq_forward 0
Core_0_L1I_wq_merged 0
Core_0_L1I_wq_to_cache 0
Core_0_L1I_wq_full 0

Core_0_L1I_pq_access 0
Core_0_L1I_pq_forward 0
Core_0_L1I_pq_merged 0
Core_0_L1I_pq_to_cache 0
Core_0_L1I_pq_full 0

Core_0_L1I_acc_epochs 805194
Core_0_L1I_acc_level_0 805194
Core_0_L1I_acc_level_1 0
Core_0_L1I_acc_level_2 0
Core_0_L1I_acc_level_3 0
Core_0_L1I_acc_level_4 0
Core_0_L1I_acc_level_5 0
Core_0_L1I_acc_level_6 0
Core_0_L1I_acc_level_7 0
Core_0_L1I_acc_level_8 0
Core_0_L1I_acc_level_9 0

Core_0_L2C_total_access 9433217
Core_0_L2C_total_hit 5801139
Core_0_L2C_total_miss 3632078
Core_0_L2C_loads 4308686
Core_0_L2C_load_hit 3688242
Core_0_L2C_load_miss 620444
Core_0_L2C_RFOs 775
Core_0_L2C_RFO_hit 752
Core_0_L2C_RFO_miss 23
Core_0_L2C_prefetches 3197717
Core_0_L2C_prefetch_hit 186223
Core_0_L2C_prefetch_miss 3011494
Core_0_L2C_writebacks 1926039
Core_0_L2C_writeback_hit 1925922
Core_0_L2C_writeback_miss 117
Core_0_L2C_prefetch_requested 4533008
Core_0_L2C_prefetch_dropped 0
Core_0_L2C_prefetch_issued 4533008
Core_0_L2C_prefetch_filled 3484911
Core_0_L2C_prefetch_useful 3290591
Core_0_L2C_prefetch_useless 194065
Core_0_L2C_prefetch_late 495
Core_0_L2C_average_miss_latency 313.69254

Core_0_L2C_rq_access 4310524
Core_0_L2C_rq_forward 0
Core_0_L2C_rq_merged 0
Core_0_L2C_rq_to_cache 4309461
Core_0_L2C_rq_full 0

Core_0_L2C_wq_access 1926039
Core_0_L2C_wq_forward 1063
Core_0_L2C_wq_merged 0
Core_0_L2C_wq_to_cache 1926039
Core_0_L2C_wq_full 0

Core_0_L2C_pq_access 4533008
Core_0_L2C_pq_forward 0
Core_0_L2C_pq_merged 0
Core_0_L2C_pq_to_cache 4533008
Core_0_L2C_pq_full 0

Core_0_L2C_acc_epochs 805194
Core_0_L2C_acc_level_0 477397
Core_0_L2C_acc_level_1 87038
Core_0_L2C_acc_level_2 54415
Core_0_L2C_acc_level_3 37691
Core_0_L2C_acc_level_4 22412
Core_0_L2C_acc_level_5 21947
Core_0_L2C_acc_level_6 13188
Core_0_L2C_acc_level_7 13930
Core_0_L2C_acc_level_8 8874
Core_0_L2C_acc_level_9 68302

Core_0_LLC_total_access 5961260
Core_0_LLC_total_hit 749108
Core_0_LLC_total_miss 5212152
Core_0_LLC_loads 619963
Core_0_LLC_load_hit 262764
Core_0_LLC_load_miss 357199
Core_0_LLC_RFOs 22
Core_0_LLC_RFO_hit 5
Core_0_LLC_RFO_miss 17
Core_0_LLC_prefetches 3431390
Core_0_LLC_prefetch_hit 140490
Core_0_LLC_prefetch_miss 3290900
Core_0_LLC_writebacks 1909885
Core_0_LLC_writeback_hit 345849
Core_0_LLC_writeback_miss 1564036
Core_0_LLC_prefetch_requested 0
Core_0_LLC_prefetch_dropped 0
Core_0_LLC_prefetch_issued 0
Core_0_LLC_prefetch_filled 4067073
Core_0_LLC_prefetch_useful 305120
Core_0_LLC_prefetch_useless 3760682
Core_0_LLC_prefetch_late 16
Core_0_LLC_average_miss_latency 212.87320

Core_0_LLC_rq_access 619985
Core_0_LLC_rq_forward 0
Core_0_LLC_rq_merged 0
Core_0_LLC_rq_to_cache 619985
Core_0_LLC_rq_full 0

Core_0_LLC_wq_access 1909885
Core_0_LLC_wq_forward 0
Core_0_LLC_wq_merged 0
Core_0_LLC_wq_to_cache 1909885
Core_0_LLC_wq_full 0

Core_0_LLC_pq_access 4331621
Core_0_LLC_pq_forward 0
Core_0_LLC_pq_merged 0
Core_0_LLC_pq_to_cache 4331621
Core_0_LLC_pq_full 0

Core_0_LLC_acc_epochs 818359
Core_0_LLC_acc_level_0 755631
Core_0_LLC_acc_level_1 30033
Core_0_LLC_acc_level_2 13489
Core_0_LLC_acc_level_3 6631
Core_0_LLC_acc_level_4 2058
Core_0_LLC_acc_level_5 4584
Core_0_LLC_acc_level_6 1190
Core_0_LLC_acc_level_7 1128
Core_0_LLC_acc_level_8 511
Core_0_LLC_acc_level_9 3104

Core_0_major_page_fault 0
Core_0_minor_page_fault 169020

[Bingo] PHT Access: 797062
[Bingo] PHT Hit PC+Addr: 11237
[Bingo] PHT Hit PC+Offs: 630434
[Bingo] PHT Miss: 155391
[Bingo] Prefetch PC+Addr: 0
[Bingo] Prefetch PC+Offs: 0
[Bingo] Useful PC+Addr: 0
[Bingo] Useful PC+Offs: 0
[Bingo] Useless PC+Addr: 0
[Bingo] Useless PC+Offs: 0
[Bingo] L1 Prefetch per Region: 0.00000
[Bingo] L2 Prefetch per Region: 6.76338
[Bingo] L3 Prefetch per Region: 1.36865
[Bingo] No Prefetch per Region: 23.86797
[Bingo] Number of Voters Mean: 13.21586
[Bingo] Number of Voters SD: 4.08110

Channel_0_RQ_row_buffer_hit 2433362
Channel_0_RQ_row_buffer_miss 1214754
Channel_0_WQ_row_buffer_hit 304196
Channel_0_WQ_row_buffer_miss 1584934
Channel_0_WQ_full 0
Channel_0_dbus_congested 3909740

avg_congested_cycle 11

DRAM_bw_pochs 3273435
DRAM_bw_level_0 2868024
DRAM_bw_level_1 167154
DRAM_bw_level_2 63016
DRAM_bw_level_3 175241
