*************************************************
   ChampSim Multicore Out-of-Order Simulator
   Last compiled: Dec 11 2024 17:59:53
*************************************************
parsing config file: /home/functionmain/桌面/Pythia/config/spp_dev2.ini

trace_0 /home/functionmain/桌面/Pythia/traces/459.GemsFDTD-1418B.champsimtrace.xz
adding L2C_PREFETCHER: SPP_dev2
Initialize SIGNATURE TABLE
ST_SET: 1
ST_WAY: 256
ST_TAG_BIT: 16
ST_TAG_MASK: ffff

Initialize PATTERN TABLE
PT_SET: 512
PT_WAY: 4
SIG_DELTA_BIT: 7
C_SIG_BIT: 4
C_DELTA_BIT: 4

Initialize PREFETCH FILTER
FILTER_SET: 1024
fill_threshold: 90
pf_threshold: 40

Initialize SHIP state
warmup_instructions 100000000
simulation_instructions 500000000
champsim_seed 272
measure_ipc 0
measure_ipc_epoch 1000
measure_dram_bw 1
measure_dram_bw_epoch 256
measure_cache_acc 1
measure_cache_acc_epoch 1024
l1d_perfect 0
l2c_perfect 0
llc_perfect 0
l1d_semi_perfect 0
l2c_semi_perfect 0
llc_semi_perfect 0
semi_perfect_cache_page_buffer_size 64

num_cpus 1
cpu_freq 4000
dram_io_freq 1200
page_size 4096
block_size 64
max_read_per_cycle 8
max_fill_per_cycle 1
dram_channels 1
log2_dram_channels 0
dram_ranks 1
dram_banks 8
dram_rows 65536
dram_columns 128
dram_row_size 8
dram_size 4096
dram_pages 1048576

fetch_width 6
decode_width 6
exec_width 4
lq_width 2
sq_width 2
retire_width 4
scheduler_size 128
branch_mispredict_penalty 20
rob_size 256
lq_size 72
sq_size 56
num_instr_destinations_sparc 4
num_instr_destinations 2
num_instr_sources 4

itlb_set 16
itlb_way 8
itlb_rq_size 16
itlb_wq_size 16
itlb_pq_size 0
itlb_mshr_size 8
itlb_latency 1

dtlb_set 16
dtlb_way 4
dtlb_rq_size 16
dtlb_wq_size 16
dtlb_pq_size 0
dtlb_mshr_size 8
dtlb_latency 1

stlb_set 128
stlb_way 12
stlb_rq_size 32
stlb_wq_size 32
stlb_pq_size 0
stlb_mshr_size 16
stlb_latency 8

l1i_size 32
l1i_set 64
l1i_way 8
l1i_rq_size 64
l1i_wq_size 64
l1i_pq_size 8
l1i_mshr_size 8
l1i_latency 1

l1d_size 32
l1d_set 64
l1d_way 8
l1d_rq_size 64
l1d_wq_size 64
l1d_pq_size 8
l1d_mshr_size 16
l1d_latency 4

l2c_size 256
l2c_set 512
l2c_way 8
l2c_rq_size 32
l2c_wq_size 32
l2c_pq_size 32
l2c_mshr_size 32
l2c_latency 10

llc_size 2048
llc_set 2048
llc_way 16
llc_rq_size 32
llc_wq_size 32
llc_pq_size 32
llc_mshr_size 64
llc_latency 20

dram_channel_width 8
dram_wq_size 64
dram_rq_size 64
tRP 15
tRCD 15
tCAS 12.5
dram_dbus_turn_around_time 30
dram_write_high_wm 56
dram_write_low_wm 48
min_dram_writes_per_switch 16
dram_mtps 1200
dram_dbus_return_time 26


Heartbeat CPU  0 instructions:    1000001 cycles:     778754 heartbeat IPC: 1.28410 cumulative IPC: 1.28410 (Simulation time: 0 hr 0 min 3 sec) 
Heartbeat CPU  0 instructions:    2000002 cycles:    1557501 heartbeat IPC: 1.28412 cumulative IPC: 1.28411 (Simulation time: 0 hr 0 min 5 sec) 
Heartbeat CPU  0 instructions:    3000003 cycles:    2336056 heartbeat IPC: 1.28443 cumulative IPC: 1.28422 (Simulation time: 0 hr 0 min 7 sec) 
Heartbeat CPU  0 instructions:    4000000 cycles:    3114795 heartbeat IPC: 1.28412 cumulative IPC: 1.28419 (Simulation time: 0 hr 0 min 10 sec) 
Heartbeat CPU  0 instructions:    5000001 cycles:    3893568 heartbeat IPC: 1.28407 cumulative IPC: 1.28417 (Simulation time: 0 hr 0 min 12 sec) 
Heartbeat CPU  0 instructions:    6000002 cycles:    4672244 heartbeat IPC: 1.28423 cumulative IPC: 1.28418 (Simulation time: 0 hr 0 min 15 sec) 
Heartbeat CPU  0 instructions:    7000003 cycles:    5450883 heartbeat IPC: 1.28429 cumulative IPC: 1.28420 (Simulation time: 0 hr 0 min 17 sec) 
Heartbeat CPU  0 instructions:    8000000 cycles:    6229277 heartbeat IPC: 1.28469 cumulative IPC: 1.28426 (Simulation time: 0 hr 0 min 20 sec) 
Heartbeat CPU  0 instructions:    9000002 cycles:    7008043 heartbeat IPC: 1.28409 cumulative IPC: 1.28424 (Simulation time: 0 hr 0 min 22 sec) 
Heartbeat CPU  0 instructions:   10000003 cycles:    7786662 heartbeat IPC: 1.28433 cumulative IPC: 1.28425 (Simulation time: 0 hr 0 min 25 sec) 
Heartbeat CPU  0 instructions:   11000000 cycles:    8565137 heartbeat IPC: 1.28456 cumulative IPC: 1.28428 (Simulation time: 0 hr 0 min 27 sec) 
Heartbeat CPU  0 instructions:   12000000 cycles:    9343566 heartbeat IPC: 1.28464 cumulative IPC: 1.28431 (Simulation time: 0 hr 0 min 30 sec) 
Heartbeat CPU  0 instructions:   13000003 cycles:   10122411 heartbeat IPC: 1.28396 cumulative IPC: 1.28428 (Simulation time: 0 hr 0 min 32 sec) 
Heartbeat CPU  0 instructions:   14000000 cycles:   10901009 heartbeat IPC: 1.28436 cumulative IPC: 1.28428 (Simulation time: 0 hr 0 min 35 sec) 
Heartbeat CPU  0 instructions:   15000001 cycles:   11679607 heartbeat IPC: 1.28436 cumulative IPC: 1.28429 (Simulation time: 0 hr 0 min 38 sec) 
Heartbeat CPU  0 instructions:   16000000 cycles:   12458468 heartbeat IPC: 1.28392 cumulative IPC: 1.28427 (Simulation time: 0 hr 0 min 40 sec) 
Heartbeat CPU  0 instructions:   17000003 cycles:   13237088 heartbeat IPC: 1.28433 cumulative IPC: 1.28427 (Simulation time: 0 hr 0 min 43 sec) 
Heartbeat CPU  0 instructions:   18000000 cycles:   14015516 heartbeat IPC: 1.28464 cumulative IPC: 1.28429 (Simulation time: 0 hr 0 min 45 sec) 
Heartbeat CPU  0 instructions:   19000003 cycles:   14794178 heartbeat IPC: 1.28426 cumulative IPC: 1.28429 (Simulation time: 0 hr 0 min 47 sec) 
Heartbeat CPU  0 instructions:   20000000 cycles:   15572705 heartbeat IPC: 1.28447 cumulative IPC: 1.28430 (Simulation time: 0 hr 0 min 50 sec) 
Heartbeat CPU  0 instructions:   21000003 cycles:   16351628 heartbeat IPC: 1.28383 cumulative IPC: 1.28428 (Simulation time: 0 hr 0 min 52 sec) 
Heartbeat CPU  0 instructions:   22000000 cycles:   17130196 heartbeat IPC: 1.28441 cumulative IPC: 1.28428 (Simulation time: 0 hr 0 min 55 sec) 
Heartbeat CPU  0 instructions:   23000003 cycles:   17908904 heartbeat IPC: 1.28418 cumulative IPC: 1.28428 (Simulation time: 0 hr 0 min 58 sec) 
Heartbeat CPU  0 instructions:   24000000 cycles:   18687763 heartbeat IPC: 1.28393 cumulative IPC: 1.28426 (Simulation time: 0 hr 1 min 0 sec) 
Heartbeat CPU  0 instructions:   25000001 cycles:   19466108 heartbeat IPC: 1.28478 cumulative IPC: 1.28428 (Simulation time: 0 hr 1 min 3 sec) 
Heartbeat CPU  0 instructions:   26000001 cycles:   20244732 heartbeat IPC: 1.28432 cumulative IPC: 1.28428 (Simulation time: 0 hr 1 min 5 sec) 
Heartbeat CPU  0 instructions:   27000002 cycles:   21023373 heartbeat IPC: 1.28429 cumulative IPC: 1.28428 (Simulation time: 0 hr 1 min 7 sec) 
Heartbeat CPU  0 instructions:   28000000 cycles:   21801941 heartbeat IPC: 1.28441 cumulative IPC: 1.28429 (Simulation time: 0 hr 1 min 10 sec) 
Heartbeat CPU  0 instructions:   29000001 cycles:   22580500 heartbeat IPC: 1.28443 cumulative IPC: 1.28429 (Simulation time: 0 hr 1 min 12 sec) 
Heartbeat CPU  0 instructions:   30000002 cycles:   23359284 heartbeat IPC: 1.28405 cumulative IPC: 1.28429 (Simulation time: 0 hr 1 min 15 sec) 
Heartbeat CPU  0 instructions:   31000003 cycles:   24137921 heartbeat IPC: 1.28430 cumulative IPC: 1.28429 (Simulation time: 0 hr 1 min 17 sec) 
Heartbeat CPU  0 instructions:   32000000 cycles:   24916538 heartbeat IPC: 1.28432 cumulative IPC: 1.28429 (Simulation time: 0 hr 1 min 20 sec) 
Heartbeat CPU  0 instructions:   33000003 cycles:   25695194 heartbeat IPC: 1.28427 cumulative IPC: 1.28429 (Simulation time: 0 hr 1 min 22 sec) 
Heartbeat CPU  0 instructions:   34000002 cycles:   26464532 heartbeat IPC: 1.29982 cumulative IPC: 1.28474 (Simulation time: 0 hr 1 min 25 sec) 
Heartbeat CPU  0 instructions:   35000001 cycles:   27246702 heartbeat IPC: 1.27849 cumulative IPC: 1.28456 (Simulation time: 0 hr 1 min 27 sec) 
Heartbeat CPU  0 instructions:   36000000 cycles:   28027315 heartbeat IPC: 1.28104 cumulative IPC: 1.28446 (Simulation time: 0 hr 1 min 30 sec) 
Heartbeat CPU  0 instructions:   37000000 cycles:   28807984 heartbeat IPC: 1.28095 cumulative IPC: 1.28437 (Simulation time: 0 hr 1 min 33 sec) 
Heartbeat CPU  0 instructions:   38000001 cycles:   29588243 heartbeat IPC: 1.28163 cumulative IPC: 1.28429 (Simulation time: 0 hr 1 min 35 sec) 
Heartbeat CPU  0 instructions:   39000003 cycles:   30368762 heartbeat IPC: 1.28120 cumulative IPC: 1.28421 (Simulation time: 0 hr 1 min 38 sec) 
Heartbeat CPU  0 instructions:   40000000 cycles:   31149615 heartbeat IPC: 1.28065 cumulative IPC: 1.28412 (Simulation time: 0 hr 1 min 40 sec) 
Heartbeat CPU  0 instructions:   41000000 cycles:   31930545 heartbeat IPC: 1.28052 cumulative IPC: 1.28404 (Simulation time: 0 hr 1 min 43 sec) 
Heartbeat CPU  0 instructions:   42000002 cycles:   32710947 heartbeat IPC: 1.28139 cumulative IPC: 1.28397 (Simulation time: 0 hr 1 min 45 sec) 
Heartbeat CPU  0 instructions:   43000000 cycles:   33490994 heartbeat IPC: 1.28197 cumulative IPC: 1.28393 (Simulation time: 0 hr 1 min 48 sec) 
Heartbeat CPU  0 instructions:   44000000 cycles:   34270477 heartbeat IPC: 1.28290 cumulative IPC: 1.28390 (Simulation time: 0 hr 1 min 50 sec) 
Heartbeat CPU  0 instructions:   45000000 cycles:   35050172 heartbeat IPC: 1.28255 cumulative IPC: 1.28387 (Simulation time: 0 hr 1 min 53 sec) 
Heartbeat CPU  0 instructions:   46000002 cycles:   35829793 heartbeat IPC: 1.28268 cumulative IPC: 1.28385 (Simulation time: 0 hr 1 min 55 sec) 
Heartbeat CPU  0 instructions:   47000001 cycles:   36608793 heartbeat IPC: 1.28370 cumulative IPC: 1.28384 (Simulation time: 0 hr 1 min 58 sec) 
Heartbeat CPU  0 instructions:   48000000 cycles:   37387696 heartbeat IPC: 1.28386 cumulative IPC: 1.28384 (Simulation time: 0 hr 2 min 0 sec) 
Heartbeat CPU  0 instructions:   49000001 cycles:   38167617 heartbeat IPC: 1.28218 cumulative IPC: 1.28381 (Simulation time: 0 hr 2 min 3 sec) 
Heartbeat CPU  0 instructions:   50000002 cycles:   38947479 heartbeat IPC: 1.28228 cumulative IPC: 1.28378 (Simulation time: 0 hr 2 min 5 sec) 
Heartbeat CPU  0 instructions:   51000000 cycles:   39726400 heartbeat IPC: 1.28382 cumulative IPC: 1.28378 (Simulation time: 0 hr 2 min 8 sec) 
Heartbeat CPU  0 instructions:   52000000 cycles:   40505344 heartbeat IPC: 1.28379 cumulative IPC: 1.28378 (Simulation time: 0 hr 2 min 10 sec) 
Heartbeat CPU  0 instructions:   53000002 cycles:   41286151 heartbeat IPC: 1.28073 cumulative IPC: 1.28372 (Simulation time: 0 hr 2 min 13 sec) 
Heartbeat CPU  0 instructions:   54000000 cycles:   42066569 heartbeat IPC: 1.28136 cumulative IPC: 1.28368 (Simulation time: 0 hr 2 min 15 sec) 
Heartbeat CPU  0 instructions:   55000003 cycles:   42846529 heartbeat IPC: 1.28212 cumulative IPC: 1.28365 (Simulation time: 0 hr 2 min 18 sec) 
Heartbeat CPU  0 instructions:   56000000 cycles:   43626787 heartbeat IPC: 1.28162 cumulative IPC: 1.28361 (Simulation time: 0 hr 2 min 20 sec) 
Heartbeat CPU  0 instructions:   57000001 cycles:   44407928 heartbeat IPC: 1.28018 cumulative IPC: 1.28355 (Simulation time: 0 hr 2 min 23 sec) 
Heartbeat CPU  0 instructions:   58000000 cycles:   45188568 heartbeat IPC: 1.28100 cumulative IPC: 1.28351 (Simulation time: 0 hr 2 min 25 sec) 
Heartbeat CPU  0 instructions:   59000001 cycles:   45968892 heartbeat IPC: 1.28152 cumulative IPC: 1.28348 (Simulation time: 0 hr 2 min 28 sec) 
Heartbeat CPU  0 instructions:   60000000 cycles:   46749380 heartbeat IPC: 1.28125 cumulative IPC: 1.28344 (Simulation time: 0 hr 2 min 30 sec) 
Heartbeat CPU  0 instructions:   61000003 cycles:   47530417 heartbeat IPC: 1.28035 cumulative IPC: 1.28339 (Simulation time: 0 hr 2 min 33 sec) 
Heartbeat CPU  0 instructions:   62000002 cycles:   48309661 heartbeat IPC: 1.28329 cumulative IPC: 1.28339 (Simulation time: 0 hr 2 min 36 sec) 
Heartbeat CPU  0 instructions:   63000002 cycles:   49088968 heartbeat IPC: 1.28319 cumulative IPC: 1.28338 (Simulation time: 0 hr 2 min 38 sec) 
Heartbeat CPU  0 instructions:   64000000 cycles:   49868147 heartbeat IPC: 1.28340 cumulative IPC: 1.28338 (Simulation time: 0 hr 2 min 41 sec) 
Heartbeat CPU  0 instructions:   65000002 cycles:   50647651 heartbeat IPC: 1.28287 cumulative IPC: 1.28338 (Simulation time: 0 hr 2 min 43 sec) 
Heartbeat CPU  0 instructions:   66000001 cycles:   51426549 heartbeat IPC: 1.28386 cumulative IPC: 1.28338 (Simulation time: 0 hr 2 min 46 sec) 
Heartbeat CPU  0 instructions:   67000003 cycles:   52205572 heartbeat IPC: 1.28366 cumulative IPC: 1.28339 (Simulation time: 0 hr 2 min 48 sec) 
Heartbeat CPU  0 instructions:   68000000 cycles:   52985460 heartbeat IPC: 1.28223 cumulative IPC: 1.28337 (Simulation time: 0 hr 2 min 51 sec) 
Heartbeat CPU  0 instructions:   69000002 cycles:   53764866 heartbeat IPC: 1.28303 cumulative IPC: 1.28337 (Simulation time: 0 hr 2 min 53 sec) 
Heartbeat CPU  0 instructions:   70000001 cycles:   54544559 heartbeat IPC: 1.28255 cumulative IPC: 1.28335 (Simulation time: 0 hr 2 min 56 sec) 
Heartbeat CPU  0 instructions:   71000003 cycles:   55324534 heartbeat IPC: 1.28209 cumulative IPC: 1.28334 (Simulation time: 0 hr 2 min 58 sec) 
Heartbeat CPU  0 instructions:   72000000 cycles:   56104732 heartbeat IPC: 1.28172 cumulative IPC: 1.28331 (Simulation time: 0 hr 3 min 1 sec) 
Heartbeat CPU  0 instructions:   73000000 cycles:   56885901 heartbeat IPC: 1.28013 cumulative IPC: 1.28327 (Simulation time: 0 hr 3 min 3 sec) 
Heartbeat CPU  0 instructions:   74000002 cycles:   57666454 heartbeat IPC: 1.28115 cumulative IPC: 1.28324 (Simulation time: 0 hr 3 min 6 sec) 
Heartbeat CPU  0 instructions:   75000000 cycles:   58447639 heartbeat IPC: 1.28010 cumulative IPC: 1.28320 (Simulation time: 0 hr 3 min 8 sec) 
Heartbeat CPU  0 instructions:   76000000 cycles:   59228358 heartbeat IPC: 1.28087 cumulative IPC: 1.28317 (Simulation time: 0 hr 3 min 11 sec) 
Heartbeat CPU  0 instructions:   77000003 cycles:   60008386 heartbeat IPC: 1.28201 cumulative IPC: 1.28315 (Simulation time: 0 hr 3 min 13 sec) 
Heartbeat CPU  0 instructions:   78000001 cycles:   60788556 heartbeat IPC: 1.28177 cumulative IPC: 1.28314 (Simulation time: 0 hr 3 min 16 sec) 
Heartbeat CPU  0 instructions:   79000001 cycles:   61569871 heartbeat IPC: 1.27989 cumulative IPC: 1.28310 (Simulation time: 0 hr 3 min 18 sec) 
Heartbeat CPU  0 instructions:   80000000 cycles:   62350068 heartbeat IPC: 1.28173 cumulative IPC: 1.28308 (Simulation time: 0 hr 3 min 21 sec) 
Heartbeat CPU  0 instructions:   81000001 cycles:   63129032 heartbeat IPC: 1.28376 cumulative IPC: 1.28309 (Simulation time: 0 hr 3 min 23 sec) 
Heartbeat CPU  0 instructions:   82000002 cycles:   63907548 heartbeat IPC: 1.28450 cumulative IPC: 1.28310 (Simulation time: 0 hr 3 min 26 sec) 
Heartbeat CPU  0 instructions:   83000000 cycles:   64688759 heartbeat IPC: 1.28006 cumulative IPC: 1.28307 (Simulation time: 0 hr 3 min 28 sec) 
Heartbeat CPU  0 instructions:   84000000 cycles:   65467884 heartbeat IPC: 1.28349 cumulative IPC: 1.28307 (Simulation time: 0 hr 3 min 31 sec) 
Heartbeat CPU  0 instructions:   85000002 cycles:   66246778 heartbeat IPC: 1.28387 cumulative IPC: 1.28308 (Simulation time: 0 hr 3 min 33 sec) 
Heartbeat CPU  0 instructions:   86000001 cycles:   67025830 heartbeat IPC: 1.28361 cumulative IPC: 1.28309 (Simulation time: 0 hr 3 min 36 sec) 
Heartbeat CPU  0 instructions:   87000001 cycles:   67805097 heartbeat IPC: 1.28326 cumulative IPC: 1.28309 (Simulation time: 0 hr 3 min 39 sec) 
Heartbeat CPU  0 instructions:   88000000 cycles:   68584284 heartbeat IPC: 1.28339 cumulative IPC: 1.28309 (Simulation time: 0 hr 3 min 41 sec) 
Heartbeat CPU  0 instructions:   89000001 cycles:   69364437 heartbeat IPC: 1.28180 cumulative IPC: 1.28308 (Simulation time: 0 hr 3 min 44 sec) 
Heartbeat CPU  0 instructions:   90000003 cycles:   70144644 heartbeat IPC: 1.28171 cumulative IPC: 1.28306 (Simulation time: 0 hr 3 min 46 sec) 
Heartbeat CPU  0 instructions:   91000001 cycles:   70924934 heartbeat IPC: 1.28157 cumulative IPC: 1.28305 (Simulation time: 0 hr 3 min 49 sec) 
Heartbeat CPU  0 instructions:   92000000 cycles:   71705571 heartbeat IPC: 1.28100 cumulative IPC: 1.28302 (Simulation time: 0 hr 3 min 51 sec) 
Heartbeat CPU  0 instructions:   93000002 cycles:   72486064 heartbeat IPC: 1.28124 cumulative IPC: 1.28301 (Simulation time: 0 hr 3 min 54 sec) 
Heartbeat CPU  0 instructions:   94000000 cycles:   73266413 heartbeat IPC: 1.28148 cumulative IPC: 1.28299 (Simulation time: 0 hr 3 min 56 sec) 
Heartbeat CPU  0 instructions:   95000001 cycles:   74046483 heartbeat IPC: 1.28194 cumulative IPC: 1.28298 (Simulation time: 0 hr 3 min 59 sec) 
Heartbeat CPU  0 instructions:   96000000 cycles:   74826920 heartbeat IPC: 1.28133 cumulative IPC: 1.28296 (Simulation time: 0 hr 4 min 1 sec) 
Heartbeat CPU  0 instructions:   97000002 cycles:   75608183 heartbeat IPC: 1.27998 cumulative IPC: 1.28293 (Simulation time: 0 hr 4 min 4 sec) 
Heartbeat CPU  0 instructions:   98000001 cycles:   76387520 heartbeat IPC: 1.28314 cumulative IPC: 1.28293 (Simulation time: 0 hr 4 min 6 sec) 
Heartbeat CPU  0 instructions:   99000003 cycles:   77166582 heartbeat IPC: 1.28360 cumulative IPC: 1.28294 (Simulation time: 0 hr 4 min 9 sec) 
Heartbeat CPU  0 instructions:  100000000 cycles:   77945446 heartbeat IPC: 1.28392 cumulative IPC: 1.28295 (Simulation time: 0 hr 4 min 11 sec) 

Warmup complete CPU  0 instructions:  100000001 cycles:   77945447 (Simulation time: 0 hr 4 min 11 sec) 

Heartbeat CPU  0 instructions:  101000003 cycles:   79368436 heartbeat IPC: 0.70275 cumulative IPC: 0.70275 (Simulation time: 0 hr 4 min 14 sec) 
Heartbeat CPU  0 instructions:  102000000 cycles:   80785599 heartbeat IPC: 0.70563 cumulative IPC: 0.70419 (Simulation time: 0 hr 4 min 18 sec) 
Heartbeat CPU  0 instructions:  103000002 cycles:   82211421 heartbeat IPC: 0.70135 cumulative IPC: 0.70324 (Simulation time: 0 hr 4 min 21 sec) 
Heartbeat CPU  0 instructions:  104000000 cycles:   83602143 heartbeat IPC: 0.71905 cumulative IPC: 0.70713 (Simulation time: 0 hr 4 min 24 sec) 
Heartbeat CPU  0 instructions:  105000003 cycles:   85036995 heartbeat IPC: 0.69694 cumulative IPC: 0.70506 (Simulation time: 0 hr 4 min 27 sec) 
Heartbeat CPU  0 instructions:  106000002 cycles:   86420581 heartbeat IPC: 0.72276 cumulative IPC: 0.70795 (Simulation time: 0 hr 4 min 30 sec) 
Heartbeat CPU  0 instructions:  107000000 cycles:   87809633 heartbeat IPC: 0.71991 cumulative IPC: 0.70964 (Simulation time: 0 hr 4 min 33 sec) 
Heartbeat CPU  0 instructions:  108000000 cycles:   89223771 heartbeat IPC: 0.70714 cumulative IPC: 0.70933 (Simulation time: 0 hr 4 min 36 sec) 
Heartbeat CPU  0 instructions:  109000003 cycles:   90636771 heartbeat IPC: 0.70772 cumulative IPC: 0.70915 (Simulation time: 0 hr 4 min 39 sec) 
Heartbeat CPU  0 instructions:  110000001 cycles:   92037931 heartbeat IPC: 0.71369 cumulative IPC: 0.70960 (Simulation time: 0 hr 4 min 42 sec) 
Heartbeat CPU  0 instructions:  111000000 cycles:   93415135 heartbeat IPC: 0.72611 cumulative IPC: 0.71107 (Simulation time: 0 hr 4 min 45 sec) 
Heartbeat CPU  0 instructions:  112000000 cycles:   94798563 heartbeat IPC: 0.72284 cumulative IPC: 0.71203 (Simulation time: 0 hr 4 min 48 sec) 
Heartbeat CPU  0 instructions:  113000000 cycles:   96200980 heartbeat IPC: 0.71305 cumulative IPC: 0.71211 (Simulation time: 0 hr 4 min 51 sec) 
Heartbeat CPU  0 instructions:  114000002 cycles:   97577891 heartbeat IPC: 0.72626 cumulative IPC: 0.71311 (Simulation time: 0 hr 4 min 54 sec) 
Heartbeat CPU  0 instructions:  115000000 cycles:   98969941 heartbeat IPC: 0.71836 cumulative IPC: 0.71345 (Simulation time: 0 hr 4 min 57 sec) 
Heartbeat CPU  0 instructions:  116000000 cycles:  100365181 heartbeat IPC: 0.71672 cumulative IPC: 0.71366 (Simulation time: 0 hr 5 min 0 sec) 
Heartbeat CPU  0 instructions:  117000000 cycles:  101762507 heartbeat IPC: 0.71565 cumulative IPC: 0.71377 (Simulation time: 0 hr 5 min 3 sec) 
Heartbeat CPU  0 instructions:  118000003 cycles:  103141605 heartbeat IPC: 0.72511 cumulative IPC: 0.71439 (Simulation time: 0 hr 5 min 6 sec) 
Heartbeat CPU  0 instructions:  119000001 cycles:  104524780 heartbeat IPC: 0.72297 cumulative IPC: 0.71484 (Simulation time: 0 hr 5 min 9 sec) 
Heartbeat CPU  0 instructions:  120000000 cycles:  105924373 heartbeat IPC: 0.71449 cumulative IPC: 0.71482 (Simulation time: 0 hr 5 min 12 sec) 
Heartbeat CPU  0 instructions:  121000000 cycles:  107305004 heartbeat IPC: 0.72431 cumulative IPC: 0.71527 (Simulation time: 0 hr 5 min 15 sec) 
Heartbeat CPU  0 instructions:  122000002 cycles:  108708733 heartbeat IPC: 0.71239 cumulative IPC: 0.71514 (Simulation time: 0 hr 5 min 18 sec) 
Heartbeat CPU  0 instructions:  123000000 cycles:  110115976 heartbeat IPC: 0.71061 cumulative IPC: 0.71494 (Simulation time: 0 hr 5 min 21 sec) 
Heartbeat CPU  0 instructions:  124000000 cycles:  111520934 heartbeat IPC: 0.71177 cumulative IPC: 0.71481 (Simulation time: 0 hr 5 min 24 sec) 
Heartbeat CPU  0 instructions:  125000002 cycles:  112921972 heartbeat IPC: 0.71376 cumulative IPC: 0.71477 (Simulation time: 0 hr 5 min 27 sec) 
Heartbeat CPU  0 instructions:  126000000 cycles:  114311968 heartbeat IPC: 0.71943 cumulative IPC: 0.71494 (Simulation time: 0 hr 5 min 30 sec) 
Heartbeat CPU  0 instructions:  127000002 cycles:  115733734 heartbeat IPC: 0.70335 cumulative IPC: 0.71451 (Simulation time: 0 hr 5 min 33 sec) 
Heartbeat CPU  0 instructions:  128000000 cycles:  117130054 heartbeat IPC: 0.71617 cumulative IPC: 0.71457 (Simulation time: 0 hr 5 min 36 sec) 
Heartbeat CPU  0 instructions:  129000001 cycles:  118516284 heartbeat IPC: 0.72138 cumulative IPC: 0.71480 (Simulation time: 0 hr 5 min 40 sec) 
Heartbeat CPU  0 instructions:  130000003 cycles:  119936566 heartbeat IPC: 0.70409 cumulative IPC: 0.71444 (Simulation time: 0 hr 5 min 43 sec) 
Heartbeat CPU  0 instructions:  131000003 cycles:  121368524 heartbeat IPC: 0.69834 cumulative IPC: 0.71391 (Simulation time: 0 hr 5 min 46 sec) 
Heartbeat CPU  0 instructions:  132000000 cycles:  122766413 heartbeat IPC: 0.71536 cumulative IPC: 0.71395 (Simulation time: 0 hr 5 min 49 sec) 
Heartbeat CPU  0 instructions:  133000000 cycles:  124155962 heartbeat IPC: 0.71966 cumulative IPC: 0.71412 (Simulation time: 0 hr 5 min 52 sec) 
Heartbeat CPU  0 instructions:  134000002 cycles:  125303421 heartbeat IPC: 0.87149 cumulative IPC: 0.71794 (Simulation time: 0 hr 5 min 54 sec) 
Heartbeat CPU  0 instructions:  135000002 cycles:  126453414 heartbeat IPC: 0.86957 cumulative IPC: 0.72153 (Simulation time: 0 hr 5 min 57 sec) 
Heartbeat CPU  0 instructions:  136000000 cycles:  127597800 heartbeat IPC: 0.87383 cumulative IPC: 0.72504 (Simulation time: 0 hr 6 min 0 sec) 
Heartbeat CPU  0 instructions:  137000002 cycles:  128744730 heartbeat IPC: 0.87189 cumulative IPC: 0.72836 (Simulation time: 0 hr 6 min 3 sec) 
Heartbeat CPU  0 instructions:  138000003 cycles:  129886271 heartbeat IPC: 0.87601 cumulative IPC: 0.73160 (Simulation time: 0 hr 6 min 5 sec) 
Heartbeat CPU  0 instructions:  139000001 cycles:  131025865 heartbeat IPC: 0.87750 cumulative IPC: 0.73473 (Simulation time: 0 hr 6 min 8 sec) 
Heartbeat CPU  0 instructions:  140000000 cycles:  132119994 heartbeat IPC: 0.91397 cumulative IPC: 0.73835 (Simulation time: 0 hr 6 min 11 sec) 
Heartbeat CPU  0 instructions:  141000003 cycles:  133211650 heartbeat IPC: 0.91604 cumulative IPC: 0.74186 (Simulation time: 0 hr 6 min 13 sec) 
Heartbeat CPU  0 instructions:  142000003 cycles:  134305409 heartbeat IPC: 0.91428 cumulative IPC: 0.74521 (Simulation time: 0 hr 6 min 16 sec) 
Heartbeat CPU  0 instructions:  143000000 cycles:  135602533 heartbeat IPC: 0.77093 cumulative IPC: 0.74579 (Simulation time: 0 hr 6 min 19 sec) 
Heartbeat CPU  0 instructions:  144000000 cycles:  137010708 heartbeat IPC: 0.71014 cumulative IPC: 0.74494 (Simulation time: 0 hr 6 min 22 sec) 
Heartbeat CPU  0 instructions:  145000002 cycles:  138374680 heartbeat IPC: 0.73315 cumulative IPC: 0.74467 (Simulation time: 0 hr 6 min 25 sec) 
Heartbeat CPU  0 instructions:  146000000 cycles:  139740115 heartbeat IPC: 0.73237 cumulative IPC: 0.74440 (Simulation time: 0 hr 6 min 28 sec) 
Heartbeat CPU  0 instructions:  147000002 cycles:  141111744 heartbeat IPC: 0.72906 cumulative IPC: 0.74407 (Simulation time: 0 hr 6 min 31 sec) 
Heartbeat CPU  0 instructions:  148000000 cycles:  142480992 heartbeat IPC: 0.73033 cumulative IPC: 0.74378 (Simulation time: 0 hr 6 min 34 sec) 
Heartbeat CPU  0 instructions:  149000001 cycles:  143856479 heartbeat IPC: 0.72702 cumulative IPC: 0.74343 (Simulation time: 0 hr 6 min 37 sec) 
Heartbeat CPU  0 instructions:  150000003 cycles:  145249740 heartbeat IPC: 0.71774 cumulative IPC: 0.74289 (Simulation time: 0 hr 6 min 40 sec) 
Heartbeat CPU  0 instructions:  151000001 cycles:  146650384 heartbeat IPC: 0.71396 cumulative IPC: 0.74230 (Simulation time: 0 hr 6 min 43 sec) 
Heartbeat CPU  0 instructions:  152000000 cycles:  148049109 heartbeat IPC: 0.71494 cumulative IPC: 0.74176 (Simulation time: 0 hr 6 min 46 sec) 
Heartbeat CPU  0 instructions:  153000002 cycles:  149410799 heartbeat IPC: 0.73438 cumulative IPC: 0.74162 (Simulation time: 0 hr 6 min 49 sec) 
Heartbeat CPU  0 instructions:  154000000 cycles:  150791878 heartbeat IPC: 0.72407 cumulative IPC: 0.74129 (Simulation time: 0 hr 6 min 52 sec) 
Heartbeat CPU  0 instructions:  155000000 cycles:  152189635 heartbeat IPC: 0.71543 cumulative IPC: 0.74080 (Simulation time: 0 hr 6 min 55 sec) 
Heartbeat CPU  0 instructions:  156000000 cycles:  153579716 heartbeat IPC: 0.71938 cumulative IPC: 0.74041 (Simulation time: 0 hr 6 min 58 sec) 
Heartbeat CPU  0 instructions:  157000001 cycles:  154963391 heartbeat IPC: 0.72271 cumulative IPC: 0.74009 (Simulation time: 0 hr 7 min 1 sec) 
Heartbeat CPU  0 instructions:  158000003 cycles:  156358836 heartbeat IPC: 0.71662 cumulative IPC: 0.73967 (Simulation time: 0 hr 7 min 4 sec) 
Heartbeat CPU  0 instructions:  159000000 cycles:  157774190 heartbeat IPC: 0.70653 cumulative IPC: 0.73908 (Simulation time: 0 hr 7 min 7 sec) 
Heartbeat CPU  0 instructions:  160000000 cycles:  159157363 heartbeat IPC: 0.72298 cumulative IPC: 0.73881 (Simulation time: 0 hr 7 min 10 sec) 
Heartbeat CPU  0 instructions:  161000003 cycles:  160562827 heartbeat IPC: 0.71151 cumulative IPC: 0.73834 (Simulation time: 0 hr 7 min 13 sec) 
Heartbeat CPU  0 instructions:  162000003 cycles:  161953344 heartbeat IPC: 0.71916 cumulative IPC: 0.73803 (Simulation time: 0 hr 7 min 16 sec) 
Heartbeat CPU  0 instructions:  163000001 cycles:  163342492 heartbeat IPC: 0.71986 cumulative IPC: 0.73773 (Simulation time: 0 hr 7 min 19 sec) 
Heartbeat CPU  0 instructions:  164000000 cycles:  164738950 heartbeat IPC: 0.71610 cumulative IPC: 0.73738 (Simulation time: 0 hr 7 min 22 sec) 
Heartbeat CPU  0 instructions:  165000000 cycles:  166135394 heartbeat IPC: 0.71610 cumulative IPC: 0.73705 (Simulation time: 0 hr 7 min 26 sec) 
Heartbeat CPU  0 instructions:  166000000 cycles:  167544002 heartbeat IPC: 0.70992 cumulative IPC: 0.73662 (Simulation time: 0 hr 7 min 29 sec) 
Heartbeat CPU  0 instructions:  167000002 cycles:  168930707 heartbeat IPC: 0.72114 cumulative IPC: 0.73638 (Simulation time: 0 hr 7 min 32 sec) 
Heartbeat CPU  0 instructions:  168000000 cycles:  170310342 heartbeat IPC: 0.72483 cumulative IPC: 0.73621 (Simulation time: 0 hr 7 min 35 sec) 
Heartbeat CPU  0 instructions:  169000001 cycles:  171685975 heartbeat IPC: 0.72694 cumulative IPC: 0.73607 (Simulation time: 0 hr 7 min 38 sec) 
Heartbeat CPU  0 instructions:  170000003 cycles:  173105378 heartbeat IPC: 0.70452 cumulative IPC: 0.73560 (Simulation time: 0 hr 7 min 41 sec) 
Heartbeat CPU  0 instructions:  171000002 cycles:  174482012 heartbeat IPC: 0.72641 cumulative IPC: 0.73547 (Simulation time: 0 hr 7 min 44 sec) 
Heartbeat CPU  0 instructions:  172000000 cycles:  175879681 heartbeat IPC: 0.71548 cumulative IPC: 0.73519 (Simulation time: 0 hr 7 min 47 sec) 
Heartbeat CPU  0 instructions:  173000002 cycles:  177245814 heartbeat IPC: 0.73199 cumulative IPC: 0.73514 (Simulation time: 0 hr 7 min 50 sec) 
Heartbeat CPU  0 instructions:  174000000 cycles:  178609770 heartbeat IPC: 0.73316 cumulative IPC: 0.73512 (Simulation time: 0 hr 7 min 53 sec) 
Heartbeat CPU  0 instructions:  175000001 cycles:  179970828 heartbeat IPC: 0.73472 cumulative IPC: 0.73511 (Simulation time: 0 hr 7 min 56 sec) 
Heartbeat CPU  0 instructions:  176000000 cycles:  181338445 heartbeat IPC: 0.73120 cumulative IPC: 0.73506 (Simulation time: 0 hr 7 min 59 sec) 
Heartbeat CPU  0 instructions:  177000001 cycles:  182741436 heartbeat IPC: 0.71276 cumulative IPC: 0.73476 (Simulation time: 0 hr 8 min 2 sec) 
Heartbeat CPU  0 instructions:  178000000 cycles:  184121039 heartbeat IPC: 0.72485 cumulative IPC: 0.73463 (Simulation time: 0 hr 8 min 5 sec) 
Heartbeat CPU  0 instructions:  179000002 cycles:  185501891 heartbeat IPC: 0.72419 cumulative IPC: 0.73450 (Simulation time: 0 hr 8 min 8 sec) 
Heartbeat CPU  0 instructions:  180000000 cycles:  186866798 heartbeat IPC: 0.73265 cumulative IPC: 0.73447 (Simulation time: 0 hr 8 min 11 sec) 
Heartbeat CPU  0 instructions:  181000002 cycles:  188250242 heartbeat IPC: 0.72284 cumulative IPC: 0.73433 (Simulation time: 0 hr 8 min 14 sec) 
Heartbeat CPU  0 instructions:  182000003 cycles:  189628372 heartbeat IPC: 0.72562 cumulative IPC: 0.73422 (Simulation time: 0 hr 8 min 17 sec) 
Heartbeat CPU  0 instructions:  183000001 cycles:  191005155 heartbeat IPC: 0.72633 cumulative IPC: 0.73413 (Simulation time: 0 hr 8 min 20 sec) 
Heartbeat CPU  0 instructions:  184000000 cycles:  192404159 heartbeat IPC: 0.71479 cumulative IPC: 0.73389 (Simulation time: 0 hr 8 min 23 sec) 
Heartbeat CPU  0 instructions:  185000003 cycles:  193816092 heartbeat IPC: 0.70825 cumulative IPC: 0.73358 (Simulation time: 0 hr 8 min 26 sec) 
Heartbeat CPU  0 instructions:  186000000 cycles:  195181389 heartbeat IPC: 0.73244 cumulative IPC: 0.73356 (Simulation time: 0 hr 8 min 30 sec) 
Heartbeat CPU  0 instructions:  187000000 cycles:  196569236 heartbeat IPC: 0.72054 cumulative IPC: 0.73341 (Simulation time: 0 hr 8 min 34 sec) 
Heartbeat CPU  0 instructions:  188000000 cycles:  197974186 heartbeat IPC: 0.71177 cumulative IPC: 0.73316 (Simulation time: 0 hr 8 min 38 sec) 
Heartbeat CPU  0 instructions:  189000001 cycles:  199403017 heartbeat IPC: 0.69987 cumulative IPC: 0.73277 (Simulation time: 0 hr 8 min 42 sec) 
Heartbeat CPU  0 instructions:  190000003 cycles:  200770103 heartbeat IPC: 0.73148 cumulative IPC: 0.73275 (Simulation time: 0 hr 8 min 46 sec) 
Heartbeat CPU  0 instructions:  191000002 cycles:  202135968 heartbeat IPC: 0.73214 cumulative IPC: 0.73275 (Simulation time: 0 hr 8 min 52 sec) 
Heartbeat CPU  0 instructions:  192000000 cycles:  203559298 heartbeat IPC: 0.70258 cumulative IPC: 0.73240 (Simulation time: 0 hr 8 min 58 sec) 
Heartbeat CPU  0 instructions:  193000002 cycles:  204943216 heartbeat IPC: 0.72259 cumulative IPC: 0.73230 (Simulation time: 0 hr 9 min 1 sec) 
Heartbeat CPU  0 instructions:  194000003 cycles:  206348362 heartbeat IPC: 0.71167 cumulative IPC: 0.73207 (Simulation time: 0 hr 9 min 4 sec) 
Heartbeat CPU  0 instructions:  195000001 cycles:  207719135 heartbeat IPC: 0.72951 cumulative IPC: 0.73204 (Simulation time: 0 hr 9 min 7 sec) 
Heartbeat CPU  0 instructions:  196000000 cycles:  209101509 heartbeat IPC: 0.72339 cumulative IPC: 0.73195 (Simulation time: 0 hr 9 min 11 sec) 
Heartbeat CPU  0 instructions:  197000001 cycles:  210497786 heartbeat IPC: 0.71619 cumulative IPC: 0.73179 (Simulation time: 0 hr 9 min 14 sec) 
Heartbeat CPU  0 instructions:  198000000 cycles:  211884394 heartbeat IPC: 0.72118 cumulative IPC: 0.73168 (Simulation time: 0 hr 9 min 17 sec) 
Heartbeat CPU  0 instructions:  199000002 cycles:  213286377 heartbeat IPC: 0.71328 cumulative IPC: 0.73149 (Simulation time: 0 hr 9 min 20 sec) 
Heartbeat CPU  0 instructions:  200000000 cycles:  214672281 heartbeat IPC: 0.72155 cumulative IPC: 0.73139 (Simulation time: 0 hr 9 min 24 sec) 
Heartbeat CPU  0 instructions:  201000001 cycles:  216054729 heartbeat IPC: 0.72336 cumulative IPC: 0.73130 (Simulation time: 0 hr 9 min 27 sec) 
Heartbeat CPU  0 instructions:  202000003 cycles:  217423010 heartbeat IPC: 0.73085 cumulative IPC: 0.73130 (Simulation time: 0 hr 9 min 30 sec) 
Heartbeat CPU  0 instructions:  203000001 cycles:  218804713 heartbeat IPC: 0.72374 cumulative IPC: 0.73123 (Simulation time: 0 hr 9 min 33 sec) 
Heartbeat CPU  0 instructions:  204000000 cycles:  220174692 heartbeat IPC: 0.72994 cumulative IPC: 0.73121 (Simulation time: 0 hr 9 min 36 sec) 
Heartbeat CPU  0 instructions:  205000001 cycles:  221540216 heartbeat IPC: 0.73232 cumulative IPC: 0.73122 (Simulation time: 0 hr 9 min 39 sec) 
Heartbeat CPU  0 instructions:  206000000 cycles:  222918312 heartbeat IPC: 0.72564 cumulative IPC: 0.73117 (Simulation time: 0 hr 9 min 42 sec) 
Heartbeat CPU  0 instructions:  207000001 cycles:  224318814 heartbeat IPC: 0.71403 cumulative IPC: 0.73101 (Simulation time: 0 hr 9 min 45 sec) 
Heartbeat CPU  0 instructions:  208000000 cycles:  225694064 heartbeat IPC: 0.72714 cumulative IPC: 0.73097 (Simulation time: 0 hr 9 min 48 sec) 
Heartbeat CPU  0 instructions:  209000001 cycles:  227063765 heartbeat IPC: 0.73009 cumulative IPC: 0.73096 (Simulation time: 0 hr 9 min 52 sec) 
Heartbeat CPU  0 instructions:  210000000 cycles:  228457628 heartbeat IPC: 0.71743 cumulative IPC: 0.73084 (Simulation time: 0 hr 9 min 55 sec) 
Heartbeat CPU  0 instructions:  211000002 cycles:  229855704 heartbeat IPC: 0.71527 cumulative IPC: 0.73069 (Simulation time: 0 hr 9 min 58 sec) 
Heartbeat CPU  0 instructions:  212000000 cycles:  231232949 heartbeat IPC: 0.72609 cumulative IPC: 0.73065 (Simulation time: 0 hr 10 min 1 sec) 
Heartbeat CPU  0 instructions:  213000000 cycles:  232627160 heartbeat IPC: 0.71725 cumulative IPC: 0.73053 (Simulation time: 0 hr 10 min 4 sec) 
Heartbeat CPU  0 instructions:  214000003 cycles:  234036386 heartbeat IPC: 0.70961 cumulative IPC: 0.73034 (Simulation time: 0 hr 10 min 7 sec) 
Heartbeat CPU  0 instructions:  215000001 cycles:  235419822 heartbeat IPC: 0.72284 cumulative IPC: 0.73028 (Simulation time: 0 hr 10 min 10 sec) 
Heartbeat CPU  0 instructions:  216000000 cycles:  236810312 heartbeat IPC: 0.71917 cumulative IPC: 0.73018 (Simulation time: 0 hr 10 min 13 sec) 
Heartbeat CPU  0 instructions:  217000003 cycles:  238197166 heartbeat IPC: 0.72106 cumulative IPC: 0.73010 (Simulation time: 0 hr 10 min 17 sec) 
Heartbeat CPU  0 instructions:  218000000 cycles:  239624984 heartbeat IPC: 0.70037 cumulative IPC: 0.72984 (Simulation time: 0 hr 10 min 20 sec) 
Heartbeat CPU  0 instructions:  219000002 cycles:  240998498 heartbeat IPC: 0.72806 cumulative IPC: 0.72982 (Simulation time: 0 hr 10 min 23 sec) 
Heartbeat CPU  0 instructions:  220000000 cycles:  242387367 heartbeat IPC: 0.72001 cumulative IPC: 0.72974 (Simulation time: 0 hr 10 min 26 sec) 
Heartbeat CPU  0 instructions:  221000001 cycles:  243790058 heartbeat IPC: 0.71292 cumulative IPC: 0.72960 (Simulation time: 0 hr 10 min 29 sec) 
Heartbeat CPU  0 instructions:  222000003 cycles:  245185721 heartbeat IPC: 0.71651 cumulative IPC: 0.72949 (Simulation time: 0 hr 10 min 32 sec) 
Heartbeat CPU  0 instructions:  223000001 cycles:  246567562 heartbeat IPC: 0.72367 cumulative IPC: 0.72944 (Simulation time: 0 hr 10 min 35 sec) 
Heartbeat CPU  0 instructions:  224000000 cycles:  247944273 heartbeat IPC: 0.72637 cumulative IPC: 0.72942 (Simulation time: 0 hr 10 min 39 sec) 
Heartbeat CPU  0 instructions:  225000002 cycles:  249338778 heartbeat IPC: 0.71710 cumulative IPC: 0.72932 (Simulation time: 0 hr 10 min 42 sec) 
Heartbeat CPU  0 instructions:  226000000 cycles:  250732936 heartbeat IPC: 0.71728 cumulative IPC: 0.72922 (Simulation time: 0 hr 10 min 46 sec) 
Heartbeat CPU  0 instructions:  227000001 cycles:  252137735 heartbeat IPC: 0.71185 cumulative IPC: 0.72908 (Simulation time: 0 hr 10 min 49 sec) 
Heartbeat CPU  0 instructions:  228000000 cycles:  253514437 heartbeat IPC: 0.72637 cumulative IPC: 0.72906 (Simulation time: 0 hr 10 min 52 sec) 
Heartbeat CPU  0 instructions:  229000001 cycles:  254944891 heartbeat IPC: 0.69908 cumulative IPC: 0.72882 (Simulation time: 0 hr 10 min 55 sec) 
Heartbeat CPU  0 instructions:  230000002 cycles:  256318273 heartbeat IPC: 0.72813 cumulative IPC: 0.72881 (Simulation time: 0 hr 10 min 58 sec) 
Heartbeat CPU  0 instructions:  231000003 cycles:  257688807 heartbeat IPC: 0.72964 cumulative IPC: 0.72882 (Simulation time: 0 hr 11 min 1 sec) 
Heartbeat CPU  0 instructions:  232000000 cycles:  259084078 heartbeat IPC: 0.71670 cumulative IPC: 0.72872 (Simulation time: 0 hr 11 min 4 sec) 
Heartbeat CPU  0 instructions:  233000001 cycles:  260479277 heartbeat IPC: 0.71674 cumulative IPC: 0.72863 (Simulation time: 0 hr 11 min 7 sec) 
Heartbeat CPU  0 instructions:  234000003 cycles:  261881428 heartbeat IPC: 0.71319 cumulative IPC: 0.72851 (Simulation time: 0 hr 11 min 11 sec) 
Heartbeat CPU  0 instructions:  235000001 cycles:  263249667 heartbeat IPC: 0.73087 cumulative IPC: 0.72853 (Simulation time: 0 hr 11 min 14 sec) 
Heartbeat CPU  0 instructions:  236000000 cycles:  264636818 heartbeat IPC: 0.72090 cumulative IPC: 0.72848 (Simulation time: 0 hr 11 min 17 sec) 
Heartbeat CPU  0 instructions:  237000001 cycles:  266022648 heartbeat IPC: 0.72159 cumulative IPC: 0.72842 (Simulation time: 0 hr 11 min 20 sec) 
Heartbeat CPU  0 instructions:  238000002 cycles:  267394118 heartbeat IPC: 0.72915 cumulative IPC: 0.72843 (Simulation time: 0 hr 11 min 23 sec) 
Heartbeat CPU  0 instructions:  239000002 cycles:  268775932 heartbeat IPC: 0.72369 cumulative IPC: 0.72840 (Simulation time: 0 hr 11 min 26 sec) 
Heartbeat CPU  0 instructions:  240000000 cycles:  270181812 heartbeat IPC: 0.71130 cumulative IPC: 0.72827 (Simulation time: 0 hr 11 min 29 sec) 
Heartbeat CPU  0 instructions:  241000001 cycles:  271572055 heartbeat IPC: 0.71930 cumulative IPC: 0.72821 (Simulation time: 0 hr 11 min 32 sec) 
Heartbeat CPU  0 instructions:  242000000 cycles:  272950405 heartbeat IPC: 0.72550 cumulative IPC: 0.72819 (Simulation time: 0 hr 11 min 36 sec) 
Heartbeat CPU  0 instructions:  243000002 cycles:  274319857 heartbeat IPC: 0.73022 cumulative IPC: 0.72820 (Simulation time: 0 hr 11 min 39 sec) 
Heartbeat CPU  0 instructions:  244000000 cycles:  275733763 heartbeat IPC: 0.70726 cumulative IPC: 0.72805 (Simulation time: 0 hr 11 min 42 sec) 
Heartbeat CPU  0 instructions:  245000000 cycles:  277111537 heartbeat IPC: 0.72581 cumulative IPC: 0.72804 (Simulation time: 0 hr 11 min 45 sec) 
Heartbeat CPU  0 instructions:  246000003 cycles:  278521739 heartbeat IPC: 0.70912 cumulative IPC: 0.72790 (Simulation time: 0 hr 11 min 48 sec) 
Heartbeat CPU  0 instructions:  247000001 cycles:  279897828 heartbeat IPC: 0.72670 cumulative IPC: 0.72789 (Simulation time: 0 hr 11 min 51 sec) 
Heartbeat CPU  0 instructions:  248000000 cycles:  281271836 heartbeat IPC: 0.72780 cumulative IPC: 0.72789 (Simulation time: 0 hr 11 min 54 sec) 
Heartbeat CPU  0 instructions:  249000001 cycles:  282681016 heartbeat IPC: 0.70963 cumulative IPC: 0.72777 (Simulation time: 0 hr 11 min 58 sec) 
Heartbeat CPU  0 instructions:  250000001 cycles:  284074387 heartbeat IPC: 0.71768 cumulative IPC: 0.72770 (Simulation time: 0 hr 12 min 1 sec) 
Heartbeat CPU  0 instructions:  251000001 cycles:  285542003 heartbeat IPC: 0.68138 cumulative IPC: 0.72737 (Simulation time: 0 hr 12 min 3 sec) 
Heartbeat CPU  0 instructions:  252000000 cycles:  287261265 heartbeat IPC: 0.58164 cumulative IPC: 0.72618 (Simulation time: 0 hr 12 min 6 sec) 
Heartbeat CPU  0 instructions:  253000000 cycles:  288820655 heartbeat IPC: 0.64128 cumulative IPC: 0.72555 (Simulation time: 0 hr 12 min 9 sec) 
Heartbeat CPU  0 instructions:  254000003 cycles:  290276421 heartbeat IPC: 0.68693 cumulative IPC: 0.72528 (Simulation time: 0 hr 12 min 11 sec) 
Heartbeat CPU  0 instructions:  255000002 cycles:  291730428 heartbeat IPC: 0.68775 cumulative IPC: 0.72503 (Simulation time: 0 hr 12 min 14 sec) 
Heartbeat CPU  0 instructions:  256000000 cycles:  296310068 heartbeat IPC: 0.21836 cumulative IPC: 0.71440 (Simulation time: 0 hr 12 min 17 sec) 
Heartbeat CPU  0 instructions:  257000000 cycles:  298023695 heartbeat IPC: 0.58356 cumulative IPC: 0.71338 (Simulation time: 0 hr 12 min 20 sec) 
Heartbeat CPU  0 instructions:  258000001 cycles:  299574214 heartbeat IPC: 0.64495 cumulative IPC: 0.71290 (Simulation time: 0 hr 12 min 22 sec) 
Heartbeat CPU  0 instructions:  259000002 cycles:  301032110 heartbeat IPC: 0.68592 cumulative IPC: 0.71273 (Simulation time: 0 hr 12 min 25 sec) 
Heartbeat CPU  0 instructions:  260000000 cycles:  302487568 heartbeat IPC: 0.68707 cumulative IPC: 0.71256 (Simulation time: 0 hr 12 min 27 sec) 
Heartbeat CPU  0 instructions:  261000000 cycles:  307274432 heartbeat IPC: 0.20891 cumulative IPC: 0.70205 (Simulation time: 0 hr 12 min 31 sec) 
Heartbeat CPU  0 instructions:  262000003 cycles:  308990614 heartbeat IPC: 0.58269 cumulative IPC: 0.70116 (Simulation time: 0 hr 12 min 34 sec) 
Heartbeat CPU  0 instructions:  263000001 cycles:  310553409 heartbeat IPC: 0.63988 cumulative IPC: 0.70075 (Simulation time: 0 hr 12 min 36 sec) 
Heartbeat CPU  0 instructions:  264000000 cycles:  312011651 heartbeat IPC: 0.68576 cumulative IPC: 0.70066 (Simulation time: 0 hr 12 min 39 sec) 
Heartbeat CPU  0 instructions:  265000001 cycles:  313467679 heartbeat IPC: 0.68680 cumulative IPC: 0.70057 (Simulation time: 0 hr 12 min 41 sec) 
Heartbeat CPU  0 instructions:  266000001 cycles:  318280163 heartbeat IPC: 0.20779 cumulative IPC: 0.69070 (Simulation time: 0 hr 12 min 45 sec) 
Heartbeat CPU  0 instructions:  267000003 cycles:  319967036 heartbeat IPC: 0.59281 cumulative IPC: 0.69002 (Simulation time: 0 hr 12 min 48 sec) 
Heartbeat CPU  0 instructions:  268000000 cycles:  321531356 heartbeat IPC: 0.63925 cumulative IPC: 0.68970 (Simulation time: 0 hr 12 min 50 sec) 
Heartbeat CPU  0 instructions:  269000002 cycles:  322987033 heartbeat IPC: 0.68697 cumulative IPC: 0.68968 (Simulation time: 0 hr 12 min 53 sec) 
Heartbeat CPU  0 instructions:  270000003 cycles:  324440827 heartbeat IPC: 0.68786 cumulative IPC: 0.68967 (Simulation time: 0 hr 12 min 55 sec) 
Heartbeat CPU  0 instructions:  271000000 cycles:  329600699 heartbeat IPC: 0.19380 cumulative IPC: 0.67950 (Simulation time: 0 hr 12 min 59 sec) 
Heartbeat CPU  0 instructions:  272000000 cycles:  331293198 heartbeat IPC: 0.59084 cumulative IPC: 0.67891 (Simulation time: 0 hr 13 min 2 sec) 
Heartbeat CPU  0 instructions:  273000000 cycles:  332861841 heartbeat IPC: 0.63749 cumulative IPC: 0.67865 (Simulation time: 0 hr 13 min 4 sec) 
Heartbeat CPU  0 instructions:  274000001 cycles:  334317843 heartbeat IPC: 0.68681 cumulative IPC: 0.67870 (Simulation time: 0 hr 13 min 7 sec) 
Heartbeat CPU  0 instructions:  275000000 cycles:  335772372 heartbeat IPC: 0.68751 cumulative IPC: 0.67875 (Simulation time: 0 hr 13 min 10 sec) 
Heartbeat CPU  0 instructions:  276000000 cycles:  336893399 heartbeat IPC: 0.89204 cumulative IPC: 0.67967 (Simulation time: 0 hr 13 min 12 sec) 
Heartbeat CPU  0 instructions:  277000000 cycles:  338551283 heartbeat IPC: 0.60318 cumulative IPC: 0.67919 (Simulation time: 0 hr 13 min 14 sec) 
Heartbeat CPU  0 instructions:  278000000 cycles:  340120152 heartbeat IPC: 0.63740 cumulative IPC: 0.67894 (Simulation time: 0 hr 13 min 17 sec) 
Heartbeat CPU  0 instructions:  279000000 cycles:  341574896 heartbeat IPC: 0.68741 cumulative IPC: 0.67898 (Simulation time: 0 hr 13 min 19 sec) 
Heartbeat CPU  0 instructions:  280000000 cycles:  343028537 heartbeat IPC: 0.68793 cumulative IPC: 0.67903 (Simulation time: 0 hr 13 min 22 sec) 
Heartbeat CPU  0 instructions:  281000000 cycles:  344118042 heartbeat IPC: 0.91785 cumulative IPC: 0.68001 (Simulation time: 0 hr 13 min 24 sec) 
Heartbeat CPU  0 instructions:  282000000 cycles:  345781381 heartbeat IPC: 0.60120 cumulative IPC: 0.67952 (Simulation time: 0 hr 13 min 26 sec) 
Heartbeat CPU  0 instructions:  283000001 cycles:  347353508 heartbeat IPC: 0.63608 cumulative IPC: 0.67927 (Simulation time: 0 hr 13 min 29 sec) 
Heartbeat CPU  0 instructions:  284000000 cycles:  348807231 heartbeat IPC: 0.68789 cumulative IPC: 0.67931 (Simulation time: 0 hr 13 min 31 sec) 
Heartbeat CPU  0 instructions:  285000000 cycles:  350260278 heartbeat IPC: 0.68821 cumulative IPC: 0.67936 (Simulation time: 0 hr 13 min 34 sec) 
Heartbeat CPU  0 instructions:  286000002 cycles:  351260892 heartbeat IPC: 0.99939 cumulative IPC: 0.68053 (Simulation time: 0 hr 13 min 36 sec) 
Heartbeat CPU  0 instructions:  287000000 cycles:  352931902 heartbeat IPC: 0.59844 cumulative IPC: 0.68003 (Simulation time: 0 hr 13 min 39 sec) 
Heartbeat CPU  0 instructions:  288000000 cycles:  354496350 heartbeat IPC: 0.63920 cumulative IPC: 0.67980 (Simulation time: 0 hr 13 min 42 sec) 
Heartbeat CPU  0 instructions:  289000001 cycles:  355951841 heartbeat IPC: 0.68705 cumulative IPC: 0.67984 (Simulation time: 0 hr 13 min 44 sec) 
Heartbeat CPU  0 instructions:  290000001 cycles:  357406212 heartbeat IPC: 0.68758 cumulative IPC: 0.67988 (Simulation time: 0 hr 13 min 47 sec) 
Heartbeat CPU  0 instructions:  291000001 cycles:  358356109 heartbeat IPC: 1.05275 cumulative IPC: 0.68114 (Simulation time: 0 hr 13 min 50 sec) 
Heartbeat CPU  0 instructions:  292000000 cycles:  359989308 heartbeat IPC: 0.61229 cumulative IPC: 0.68075 (Simulation time: 0 hr 13 min 53 sec) 
Heartbeat CPU  0 instructions:  293000001 cycles:  361704121 heartbeat IPC: 0.58315 cumulative IPC: 0.68016 (Simulation time: 0 hr 13 min 56 sec) 
Heartbeat CPU  0 instructions:  294000003 cycles:  363418504 heartbeat IPC: 0.58330 cumulative IPC: 0.67957 (Simulation time: 0 hr 13 min 58 sec) 
Heartbeat CPU  0 instructions:  295000003 cycles:  364742832 heartbeat IPC: 0.75510 cumulative IPC: 0.67992 (Simulation time: 0 hr 14 min 1 sec) 
Heartbeat CPU  0 instructions:  296000000 cycles:  366103768 heartbeat IPC: 0.73479 cumulative IPC: 0.68018 (Simulation time: 0 hr 14 min 3 sec) 
Heartbeat CPU  0 instructions:  297000001 cycles:  367820914 heartbeat IPC: 0.58236 cumulative IPC: 0.67960 (Simulation time: 0 hr 14 min 6 sec) 
Heartbeat CPU  0 instructions:  298000002 cycles:  369538417 heartbeat IPC: 0.58224 cumulative IPC: 0.67903 (Simulation time: 0 hr 14 min 9 sec) 
Heartbeat CPU  0 instructions:  299000002 cycles:  371032425 heartbeat IPC: 0.66934 cumulative IPC: 0.67898 (Simulation time: 0 hr 14 min 11 sec) 
Heartbeat CPU  0 instructions:  300000000 cycles:  372043387 heartbeat IPC: 0.98915 cumulative IPC: 0.68005 (Simulation time: 0 hr 14 min 13 sec) 
Heartbeat CPU  0 instructions:  301000000 cycles:  373496052 heartbeat IPC: 0.68839 cumulative IPC: 0.68009 (Simulation time: 0 hr 14 min 16 sec) 
Heartbeat CPU  0 instructions:  302000001 cycles:  374948688 heartbeat IPC: 0.68840 cumulative IPC: 0.68013 (Simulation time: 0 hr 14 min 18 sec) 
Heartbeat CPU  0 instructions:  303000000 cycles:  376401409 heartbeat IPC: 0.68836 cumulative IPC: 0.68017 (Simulation time: 0 hr 14 min 21 sec) 
Heartbeat CPU  0 instructions:  304000000 cycles:  377853944 heartbeat IPC: 0.68845 cumulative IPC: 0.68021 (Simulation time: 0 hr 14 min 23 sec) 
Heartbeat CPU  0 instructions:  305000003 cycles:  378825994 heartbeat IPC: 1.02876 cumulative IPC: 0.68133 (Simulation time: 0 hr 14 min 25 sec) 
Heartbeat CPU  0 instructions:  306000001 cycles:  380174043 heartbeat IPC: 0.74181 cumulative IPC: 0.68160 (Simulation time: 0 hr 14 min 28 sec) 
Heartbeat CPU  0 instructions:  307000001 cycles:  381628230 heartbeat IPC: 0.68767 cumulative IPC: 0.68163 (Simulation time: 0 hr 14 min 30 sec) 
Heartbeat CPU  0 instructions:  308000000 cycles:  383082225 heartbeat IPC: 0.68776 cumulative IPC: 0.68166 (Simulation time: 0 hr 14 min 33 sec) 
Heartbeat CPU  0 instructions:  309000003 cycles:  384536364 heartbeat IPC: 0.68769 cumulative IPC: 0.68169 (Simulation time: 0 hr 14 min 35 sec) 
Heartbeat CPU  0 instructions:  310000002 cycles:  385864726 heartbeat IPC: 0.75281 cumulative IPC: 0.68200 (Simulation time: 0 hr 14 min 37 sec) 
Heartbeat CPU  0 instructions:  311000000 cycles:  388564373 heartbeat IPC: 0.37042 cumulative IPC: 0.67929 (Simulation time: 0 hr 14 min 41 sec) 
Heartbeat CPU  0 instructions:  312000000 cycles:  391381895 heartbeat IPC: 0.35492 cumulative IPC: 0.67637 (Simulation time: 0 hr 14 min 44 sec) 
Heartbeat CPU  0 instructions:  313000002 cycles:  394187301 heartbeat IPC: 0.35646 cumulative IPC: 0.67354 (Simulation time: 0 hr 14 min 48 sec) 
Heartbeat CPU  0 instructions:  314000002 cycles:  396972304 heartbeat IPC: 0.35907 cumulative IPC: 0.67079 (Simulation time: 0 hr 14 min 52 sec) 
Heartbeat CPU  0 instructions:  315000001 cycles:  399742446 heartbeat IPC: 0.36099 cumulative IPC: 0.66812 (Simulation time: 0 hr 14 min 56 sec) 
Heartbeat CPU  0 instructions:  316000000 cycles:  402525184 heartbeat IPC: 0.35936 cumulative IPC: 0.66548 (Simulation time: 0 hr 14 min 59 sec) 
Heartbeat CPU  0 instructions:  317000002 cycles:  405313601 heartbeat IPC: 0.35863 cumulative IPC: 0.66286 (Simulation time: 0 hr 15 min 3 sec) 
Heartbeat CPU  0 instructions:  318000000 cycles:  408080372 heartbeat IPC: 0.36143 cumulative IPC: 0.66034 (Simulation time: 0 hr 15 min 8 sec) 
Heartbeat CPU  0 instructions:  319000002 cycles:  410865820 heartbeat IPC: 0.35901 cumulative IPC: 0.65781 (Simulation time: 0 hr 15 min 11 sec) 
Heartbeat CPU  0 instructions:  320000000 cycles:  413643686 heartbeat IPC: 0.35999 cumulative IPC: 0.65535 (Simulation time: 0 hr 15 min 15 sec) 
Heartbeat CPU  0 instructions:  321000001 cycles:  416407693 heartbeat IPC: 0.36179 cumulative IPC: 0.65295 (Simulation time: 0 hr 15 min 18 sec) 
Heartbeat CPU  0 instructions:  322000000 cycles:  419189059 heartbeat IPC: 0.35954 cumulative IPC: 0.65056 (Simulation time: 0 hr 15 min 21 sec) 
Heartbeat CPU  0 instructions:  323000001 cycles:  422038391 heartbeat IPC: 0.35096 cumulative IPC: 0.64808 (Simulation time: 0 hr 15 min 25 sec) 
Heartbeat CPU  0 instructions:  324000000 cycles:  424800565 heartbeat IPC: 0.36203 cumulative IPC: 0.64580 (Simulation time: 0 hr 15 min 28 sec) 
Heartbeat CPU  0 instructions:  325000003 cycles:  427567526 heartbeat IPC: 0.36141 cumulative IPC: 0.64355 (Simulation time: 0 hr 15 min 32 sec) 
Heartbeat CPU  0 instructions:  326000000 cycles:  430331369 heartbeat IPC: 0.36181 cumulative IPC: 0.64134 (Simulation time: 0 hr 15 min 35 sec) 
Heartbeat CPU  0 instructions:  327000003 cycles:  433093009 heartbeat IPC: 0.36210 cumulative IPC: 0.63917 (Simulation time: 0 hr 15 min 39 sec) 
Heartbeat CPU  0 instructions:  328000000 cycles:  435872654 heartbeat IPC: 0.35976 cumulative IPC: 0.63700 (Simulation time: 0 hr 15 min 42 sec) 
Heartbeat CPU  0 instructions:  329000001 cycles:  438639431 heartbeat IPC: 0.36143 cumulative IPC: 0.63489 (Simulation time: 0 hr 15 min 46 sec) 
Heartbeat CPU  0 instructions:  330000000 cycles:  441388327 heartbeat IPC: 0.36378 cumulative IPC: 0.63284 (Simulation time: 0 hr 15 min 49 sec) 
Heartbeat CPU  0 instructions:  331000003 cycles:  444158015 heartbeat IPC: 0.36105 cumulative IPC: 0.63078 (Simulation time: 0 hr 15 min 53 sec) 
Heartbeat CPU  0 instructions:  332000000 cycles:  446917609 heartbeat IPC: 0.36237 cumulative IPC: 0.62877 (Simulation time: 0 hr 15 min 56 sec) 
Heartbeat CPU  0 instructions:  333000000 cycles:  449681465 heartbeat IPC: 0.36181 cumulative IPC: 0.62679 (Simulation time: 0 hr 16 min 0 sec) 
Heartbeat CPU  0 instructions:  334000002 cycles:  452444171 heartbeat IPC: 0.36196 cumulative IPC: 0.62484 (Simulation time: 0 hr 16 min 3 sec) 
Heartbeat CPU  0 instructions:  335000001 cycles:  454897933 heartbeat IPC: 0.40754 cumulative IPC: 0.62342 (Simulation time: 0 hr 16 min 6 sec) 
Heartbeat CPU  0 instructions:  336000000 cycles:  456317424 heartbeat IPC: 0.70448 cumulative IPC: 0.62372 (Simulation time: 0 hr 16 min 9 sec) 
Heartbeat CPU  0 instructions:  337000002 cycles:  457729762 heartbeat IPC: 0.70805 cumulative IPC: 0.62404 (Simulation time: 0 hr 16 min 12 sec) 
Heartbeat CPU  0 instructions:  338000002 cycles:  459156127 heartbeat IPC: 0.70108 cumulative IPC: 0.62433 (Simulation time: 0 hr 16 min 15 sec) 
Heartbeat CPU  0 instructions:  339000000 cycles:  460569460 heartbeat IPC: 0.70755 cumulative IPC: 0.62463 (Simulation time: 0 hr 16 min 18 sec) 
Heartbeat CPU  0 instructions:  340000000 cycles:  461961060 heartbeat IPC: 0.71860 cumulative IPC: 0.62497 (Simulation time: 0 hr 16 min 21 sec) 
Heartbeat CPU  0 instructions:  341000000 cycles:  463349254 heartbeat IPC: 0.72036 cumulative IPC: 0.62532 (Simulation time: 0 hr 16 min 24 sec) 
Heartbeat CPU  0 instructions:  342000001 cycles:  464743264 heartbeat IPC: 0.71736 cumulative IPC: 0.62565 (Simulation time: 0 hr 16 min 27 sec) 
Heartbeat CPU  0 instructions:  343000003 cycles:  466151022 heartbeat IPC: 0.71035 cumulative IPC: 0.62596 (Simulation time: 0 hr 16 min 30 sec) 
Heartbeat CPU  0 instructions:  344000000 cycles:  467579821 heartbeat IPC: 0.69989 cumulative IPC: 0.62623 (Simulation time: 0 hr 16 min 33 sec) 
Heartbeat CPU  0 instructions:  345000001 cycles:  469000255 heartbeat IPC: 0.70401 cumulative IPC: 0.62651 (Simulation time: 0 hr 16 min 35 sec) 
Heartbeat CPU  0 instructions:  346000002 cycles:  470451178 heartbeat IPC: 0.68922 cumulative IPC: 0.62674 (Simulation time: 0 hr 16 min 38 sec) 
Heartbeat CPU  0 instructions:  347000000 cycles:  472093260 heartbeat IPC: 0.60898 cumulative IPC: 0.62667 (Simulation time: 0 hr 16 min 41 sec) 
Heartbeat CPU  0 instructions:  348000000 cycles:  473530159 heartbeat IPC: 0.69594 cumulative IPC: 0.62692 (Simulation time: 0 hr 16 min 44 sec) 
Heartbeat CPU  0 instructions:  349000001 cycles:  474939465 heartbeat IPC: 0.70957 cumulative IPC: 0.62721 (Simulation time: 0 hr 16 min 47 sec) 
Heartbeat CPU  0 instructions:  350000001 cycles:  476383227 heartbeat IPC: 0.69263 cumulative IPC: 0.62745 (Simulation time: 0 hr 16 min 50 sec) 
Heartbeat CPU  0 instructions:  351000002 cycles:  477843301 heartbeat IPC: 0.68490 cumulative IPC: 0.62766 (Simulation time: 0 hr 16 min 53 sec) 
Heartbeat CPU  0 instructions:  352000000 cycles:  479326522 heartbeat IPC: 0.67421 cumulative IPC: 0.62783 (Simulation time: 0 hr 16 min 57 sec) 
Heartbeat CPU  0 instructions:  353000001 cycles:  480809984 heartbeat IPC: 0.67410 cumulative IPC: 0.62800 (Simulation time: 0 hr 17 min 0 sec) 
Heartbeat CPU  0 instructions:  354000000 cycles:  482281053 heartbeat IPC: 0.67978 cumulative IPC: 0.62819 (Simulation time: 0 hr 17 min 3 sec) 
Heartbeat CPU  0 instructions:  355000003 cycles:  483735604 heartbeat IPC: 0.68750 cumulative IPC: 0.62840 (Simulation time: 0 hr 17 min 7 sec) 
Heartbeat CPU  0 instructions:  356000000 cycles:  485197285 heartbeat IPC: 0.68414 cumulative IPC: 0.62860 (Simulation time: 0 hr 17 min 10 sec) 
Heartbeat CPU  0 instructions:  357000001 cycles:  486669851 heartbeat IPC: 0.67909 cumulative IPC: 0.62879 (Simulation time: 0 hr 17 min 14 sec) 
Heartbeat CPU  0 instructions:  358000003 cycles:  488132871 heartbeat IPC: 0.68352 cumulative IPC: 0.62898 (Simulation time: 0 hr 17 min 17 sec) 
Heartbeat CPU  0 instructions:  359000002 cycles:  489561766 heartbeat IPC: 0.69984 cumulative IPC: 0.62923 (Simulation time: 0 hr 17 min 21 sec) 
Heartbeat CPU  0 instructions:  360000000 cycles:  490941463 heartbeat IPC: 0.72480 cumulative IPC: 0.62955 (Simulation time: 0 hr 17 min 24 sec) 
Heartbeat CPU  0 instructions:  361000000 cycles:  492176970 heartbeat IPC: 0.80938 cumulative IPC: 0.63008 (Simulation time: 0 hr 17 min 27 sec) 
Heartbeat CPU  0 instructions:  362000002 cycles:  493420567 heartbeat IPC: 0.80412 cumulative IPC: 0.63060 (Simulation time: 0 hr 17 min 31 sec) 
Heartbeat CPU  0 instructions:  363000002 cycles:  494662475 heartbeat IPC: 0.80521 cumulative IPC: 0.63112 (Simulation time: 0 hr 17 min 34 sec) 
Heartbeat CPU  0 instructions:  364000000 cycles:  495901974 heartbeat IPC: 0.80678 cumulative IPC: 0.63164 (Simulation time: 0 hr 17 min 37 sec) 
Heartbeat CPU  0 instructions:  365000002 cycles:  497140891 heartbeat IPC: 0.80716 cumulative IPC: 0.63216 (Simulation time: 0 hr 17 min 40 sec) 
Heartbeat CPU  0 instructions:  366000002 cycles:  498379617 heartbeat IPC: 0.80728 cumulative IPC: 0.63268 (Simulation time: 0 hr 17 min 43 sec) 
Heartbeat CPU  0 instructions:  367000001 cycles:  499615537 heartbeat IPC: 0.80911 cumulative IPC: 0.63320 (Simulation time: 0 hr 17 min 46 sec) 
Heartbeat CPU  0 instructions:  368000000 cycles:  500849781 heartbeat IPC: 0.81021 cumulative IPC: 0.63371 (Simulation time: 0 hr 17 min 53 sec) 
Heartbeat CPU  0 instructions:  369000000 cycles:  502083605 heartbeat IPC: 0.81049 cumulative IPC: 0.63423 (Simulation time: 0 hr 17 min 57 sec) 
Heartbeat CPU  0 instructions:  370000003 cycles:  503317879 heartbeat IPC: 0.81020 cumulative IPC: 0.63474 (Simulation time: 0 hr 18 min 0 sec) 
Heartbeat CPU  0 instructions:  371000001 cycles:  504558794 heartbeat IPC: 0.80586 cumulative IPC: 0.63524 (Simulation time: 0 hr 18 min 3 sec) 
Heartbeat CPU  0 instructions:  372000000 cycles:  505800065 heartbeat IPC: 0.80563 cumulative IPC: 0.63573 (Simulation time: 0 hr 18 min 7 sec) 
Heartbeat CPU  0 instructions:  373000000 cycles:  507040187 heartbeat IPC: 0.80637 cumulative IPC: 0.63622 (Simulation time: 0 hr 18 min 10 sec) 
Heartbeat CPU  0 instructions:  374000000 cycles:  508268916 heartbeat IPC: 0.81385 cumulative IPC: 0.63673 (Simulation time: 0 hr 18 min 12 sec) 
Heartbeat CPU  0 instructions:  375000001 cycles:  509683714 heartbeat IPC: 0.70682 cumulative IPC: 0.63696 (Simulation time: 0 hr 18 min 16 sec) 
Heartbeat CPU  0 instructions:  376000000 cycles:  510922605 heartbeat IPC: 0.80717 cumulative IPC: 0.63745 (Simulation time: 0 hr 18 min 19 sec) 
Heartbeat CPU  0 instructions:  377000001 cycles:  512162384 heartbeat IPC: 0.80660 cumulative IPC: 0.63793 (Simulation time: 0 hr 18 min 22 sec) 
Heartbeat CPU  0 instructions:  378000003 cycles:  513390668 heartbeat IPC: 0.81415 cumulative IPC: 0.63843 (Simulation time: 0 hr 18 min 25 sec) 
Heartbeat CPU  0 instructions:  379000000 cycles:  514624867 heartbeat IPC: 0.81024 cumulative IPC: 0.63891 (Simulation time: 0 hr 18 min 28 sec) 
Heartbeat CPU  0 instructions:  380000000 cycles:  515849094 heartbeat IPC: 0.81684 cumulative IPC: 0.63941 (Simulation time: 0 hr 18 min 31 sec) 
Heartbeat CPU  0 instructions:  381000003 cycles:  517088718 heartbeat IPC: 0.80670 cumulative IPC: 0.63988 (Simulation time: 0 hr 18 min 34 sec) 
Heartbeat CPU  0 instructions:  382000003 cycles:  518311037 heartbeat IPC: 0.81812 cumulative IPC: 0.64038 (Simulation time: 0 hr 18 min 37 sec) 
Heartbeat CPU  0 instructions:  383000003 cycles:  519508048 heartbeat IPC: 0.83541 cumulative IPC: 0.64091 (Simulation time: 0 hr 18 min 41 sec) 
Heartbeat CPU  0 instructions:  384000000 cycles:  520677603 heartbeat IPC: 0.85502 cumulative IPC: 0.64147 (Simulation time: 0 hr 18 min 44 sec) 
Heartbeat CPU  0 instructions:  385000003 cycles:  521862865 heartbeat IPC: 0.84370 cumulative IPC: 0.64201 (Simulation time: 0 hr 18 min 47 sec) 
Heartbeat CPU  0 instructions:  386000001 cycles:  523088315 heartbeat IPC: 0.81603 cumulative IPC: 0.64249 (Simulation time: 0 hr 18 min 50 sec) 
Heartbeat CPU  0 instructions:  387000003 cycles:  524316616 heartbeat IPC: 0.81413 cumulative IPC: 0.64296 (Simulation time: 0 hr 18 min 54 sec) 
Heartbeat CPU  0 instructions:  388000000 cycles:  525544598 heartbeat IPC: 0.81434 cumulative IPC: 0.64343 (Simulation time: 0 hr 18 min 57 sec) 
Heartbeat CPU  0 instructions:  389000003 cycles:  526770374 heartbeat IPC: 0.81581 cumulative IPC: 0.64390 (Simulation time: 0 hr 19 min 0 sec) 
Heartbeat CPU  0 instructions:  390000000 cycles:  528534738 heartbeat IPC: 0.56677 cumulative IPC: 0.64360 (Simulation time: 0 hr 19 min 4 sec) 
Heartbeat CPU  0 instructions:  391000003 cycles:  531305884 heartbeat IPC: 0.36086 cumulative IPC: 0.64187 (Simulation time: 0 hr 19 min 9 sec) 
Heartbeat CPU  0 instructions:  392000000 cycles:  534071218 heartbeat IPC: 0.36162 cumulative IPC: 0.64017 (Simulation time: 0 hr 19 min 14 sec) 
Heartbeat CPU  0 instructions:  393000003 cycles:  536827690 heartbeat IPC: 0.36278 cumulative IPC: 0.63851 (Simulation time: 0 hr 19 min 18 sec) 
Heartbeat CPU  0 instructions:  394000001 cycles:  539586649 heartbeat IPC: 0.36245 cumulative IPC: 0.63686 (Simulation time: 0 hr 19 min 22 sec) 
Heartbeat CPU  0 instructions:  395000000 cycles:  542332110 heartbeat IPC: 0.36424 cumulative IPC: 0.63525 (Simulation time: 0 hr 19 min 26 sec) 
Heartbeat CPU  0 instructions:  396000000 cycles:  545077455 heartbeat IPC: 0.36425 cumulative IPC: 0.63365 (Simulation time: 0 hr 19 min 30 sec) 
Heartbeat CPU  0 instructions:  397000002 cycles:  547824915 heartbeat IPC: 0.36397 cumulative IPC: 0.63208 (Simulation time: 0 hr 19 min 35 sec) 
Heartbeat CPU  0 instructions:  398000001 cycles:  550573646 heartbeat IPC: 0.36380 cumulative IPC: 0.63052 (Simulation time: 0 hr 19 min 39 sec) 
Heartbeat CPU  0 instructions:  399000002 cycles:  553344578 heartbeat IPC: 0.36089 cumulative IPC: 0.62895 (Simulation time: 0 hr 19 min 43 sec) 
Heartbeat CPU  0 instructions:  400000000 cycles:  556106936 heartbeat IPC: 0.36201 cumulative IPC: 0.62740 (Simulation time: 0 hr 19 min 47 sec) 
Heartbeat CPU  0 instructions:  401000001 cycles:  558868035 heartbeat IPC: 0.36217 cumulative IPC: 0.62588 (Simulation time: 0 hr 19 min 50 sec) 
Heartbeat CPU  0 instructions:  402000000 cycles:  561716273 heartbeat IPC: 0.35109 cumulative IPC: 0.62426 (Simulation time: 0 hr 19 min 54 sec) 
Heartbeat CPU  0 instructions:  403000000 cycles:  564445844 heartbeat IPC: 0.36636 cumulative IPC: 0.62282 (Simulation time: 0 hr 19 min 57 sec) 
Heartbeat CPU  0 instructions:  404000000 cycles:  567193530 heartbeat IPC: 0.36394 cumulative IPC: 0.62136 (Simulation time: 0 hr 20 min 0 sec) 
Heartbeat CPU  0 instructions:  405000000 cycles:  569926290 heartbeat IPC: 0.36593 cumulative IPC: 0.61994 (Simulation time: 0 hr 20 min 4 sec) 
Heartbeat CPU  0 instructions:  406000000 cycles:  572646906 heartbeat IPC: 0.36756 cumulative IPC: 0.61855 (Simulation time: 0 hr 20 min 8 sec) 
Heartbeat CPU  0 instructions:  407000002 cycles:  575390677 heartbeat IPC: 0.36446 cumulative IPC: 0.61715 (Simulation time: 0 hr 20 min 12 sec) 
Heartbeat CPU  0 instructions:  408000000 cycles:  578136002 heartbeat IPC: 0.36425 cumulative IPC: 0.61577 (Simulation time: 0 hr 20 min 15 sec) 
Heartbeat CPU  0 instructions:  409000002 cycles:  580868699 heartbeat IPC: 0.36594 cumulative IPC: 0.61441 (Simulation time: 0 hr 20 min 19 sec) 
Heartbeat CPU  0 instructions:  410000003 cycles:  583610249 heartbeat IPC: 0.36476 cumulative IPC: 0.61305 (Simulation time: 0 hr 20 min 23 sec) 
Heartbeat CPU  0 instructions:  411000001 cycles:  586336187 heartbeat IPC: 0.36685 cumulative IPC: 0.61173 (Simulation time: 0 hr 20 min 27 sec) 
Heartbeat CPU  0 instructions:  412000000 cycles:  589051613 heartbeat IPC: 0.36827 cumulative IPC: 0.61044 (Simulation time: 0 hr 20 min 31 sec) 
Heartbeat CPU  0 instructions:  413000002 cycles:  591790649 heartbeat IPC: 0.36509 cumulative IPC: 0.60913 (Simulation time: 0 hr 20 min 34 sec) 
Heartbeat CPU  0 instructions:  414000001 cycles:  594495056 heartbeat IPC: 0.36977 cumulative IPC: 0.60788 (Simulation time: 0 hr 20 min 38 sec) 
Heartbeat CPU  0 instructions:  415000000 cycles:  595816830 heartbeat IPC: 0.75656 cumulative IPC: 0.60826 (Simulation time: 0 hr 20 min 41 sec) 
Heartbeat CPU  0 instructions:  416000000 cycles:  597098709 heartbeat IPC: 0.78010 cumulative IPC: 0.60868 (Simulation time: 0 hr 20 min 44 sec) 
Heartbeat CPU  0 instructions:  417000003 cycles:  598383079 heartbeat IPC: 0.77859 cumulative IPC: 0.60910 (Simulation time: 0 hr 20 min 47 sec) 
Heartbeat CPU  0 instructions:  418000001 cycles:  599680704 heartbeat IPC: 0.77064 cumulative IPC: 0.60950 (Simulation time: 0 hr 20 min 50 sec) 
Heartbeat CPU  0 instructions:  419000002 cycles:  600985106 heartbeat IPC: 0.76664 cumulative IPC: 0.60990 (Simulation time: 0 hr 20 min 54 sec) 
Heartbeat CPU  0 instructions:  420000000 cycles:  602290869 heartbeat IPC: 0.76583 cumulative IPC: 0.61028 (Simulation time: 0 hr 20 min 57 sec) 
Heartbeat CPU  0 instructions:  421000000 cycles:  603595288 heartbeat IPC: 0.76662 cumulative IPC: 0.61067 (Simulation time: 0 hr 21 min 0 sec) 
Heartbeat CPU  0 instructions:  422000001 cycles:  604900300 heartbeat IPC: 0.76628 cumulative IPC: 0.61106 (Simulation time: 0 hr 21 min 3 sec) 
Heartbeat CPU  0 instructions:  423000003 cycles:  606203601 heartbeat IPC: 0.76728 cumulative IPC: 0.61144 (Simulation time: 0 hr 21 min 6 sec) 
Heartbeat CPU  0 instructions:  424000000 cycles:  607488237 heartbeat IPC: 0.77843 cumulative IPC: 0.61185 (Simulation time: 0 hr 21 min 9 sec) 
Heartbeat CPU  0 instructions:  425000003 cycles:  608764580 heartbeat IPC: 0.78349 cumulative IPC: 0.61226 (Simulation time: 0 hr 21 min 13 sec) 
Heartbeat CPU  0 instructions:  426000002 cycles:  610045943 heartbeat IPC: 0.78042 cumulative IPC: 0.61267 (Simulation time: 0 hr 21 min 16 sec) 
Heartbeat CPU  0 instructions:  427000003 cycles:  611591426 heartbeat IPC: 0.64705 cumulative IPC: 0.61277 (Simulation time: 0 hr 21 min 19 sec) 
Heartbeat CPU  0 instructions:  428000000 cycles:  612913263 heartbeat IPC: 0.75652 cumulative IPC: 0.61312 (Simulation time: 0 hr 21 min 23 sec) 
Heartbeat CPU  0 instructions:  429000001 cycles:  614228974 heartbeat IPC: 0.76005 cumulative IPC: 0.61348 (Simulation time: 0 hr 21 min 26 sec) 
Heartbeat CPU  0 instructions:  430000003 cycles:  615551701 heartbeat IPC: 0.75602 cumulative IPC: 0.61383 (Simulation time: 0 hr 21 min 29 sec) 
Heartbeat CPU  0 instructions:  431000001 cycles:  616864456 heartbeat IPC: 0.76176 cumulative IPC: 0.61419 (Simulation time: 0 hr 21 min 33 sec) 
Heartbeat CPU  0 instructions:  432000000 cycles:  618180778 heartbeat IPC: 0.75969 cumulative IPC: 0.61455 (Simulation time: 0 hr 21 min 37 sec) 
Heartbeat CPU  0 instructions:  433000001 cycles:  619483207 heartbeat IPC: 0.76780 cumulative IPC: 0.61492 (Simulation time: 0 hr 21 min 41 sec) 
Heartbeat CPU  0 instructions:  434000001 cycles:  620798516 heartbeat IPC: 0.76028 cumulative IPC: 0.61527 (Simulation time: 0 hr 21 min 45 sec) 
Heartbeat CPU  0 instructions:  435000000 cycles:  622119850 heartbeat IPC: 0.75681 cumulative IPC: 0.61561 (Simulation time: 0 hr 21 min 49 sec) 
Heartbeat CPU  0 instructions:  436000000 cycles:  623448987 heartbeat IPC: 0.75237 cumulative IPC: 0.61594 (Simulation time: 0 hr 21 min 52 sec) 
Heartbeat CPU  0 instructions:  437000000 cycles:  624763743 heartbeat IPC: 0.76060 cumulative IPC: 0.61629 (Simulation time: 0 hr 21 min 55 sec) 
Heartbeat CPU  0 instructions:  438000000 cycles:  626061802 heartbeat IPC: 0.77038 cumulative IPC: 0.61666 (Simulation time: 0 hr 21 min 58 sec) 
Heartbeat CPU  0 instructions:  439000000 cycles:  627512112 heartbeat IPC: 0.68951 cumulative IPC: 0.61685 (Simulation time: 0 hr 22 min 1 sec) 
Heartbeat CPU  0 instructions:  440000000 cycles:  628773233 heartbeat IPC: 0.79295 cumulative IPC: 0.61725 (Simulation time: 0 hr 22 min 4 sec) 
Heartbeat CPU  0 instructions:  441000001 cycles:  630026854 heartbeat IPC: 0.79769 cumulative IPC: 0.61766 (Simulation time: 0 hr 22 min 7 sec) 
Heartbeat CPU  0 instructions:  442000001 cycles:  631281505 heartbeat IPC: 0.79703 cumulative IPC: 0.61807 (Simulation time: 0 hr 22 min 10 sec) 
Heartbeat CPU  0 instructions:  443000000 cycles:  632535130 heartbeat IPC: 0.79769 cumulative IPC: 0.61848 (Simulation time: 0 hr 22 min 14 sec) 
Heartbeat CPU  0 instructions:  444000000 cycles:  633791134 heartbeat IPC: 0.79618 cumulative IPC: 0.61888 (Simulation time: 0 hr 22 min 17 sec) 
Heartbeat CPU  0 instructions:  445000000 cycles:  635044012 heartbeat IPC: 0.79816 cumulative IPC: 0.61928 (Simulation time: 0 hr 22 min 20 sec) 
Heartbeat CPU  0 instructions:  446000002 cycles:  636288875 heartbeat IPC: 0.80330 cumulative IPC: 0.61969 (Simulation time: 0 hr 22 min 23 sec) 
Heartbeat CPU  0 instructions:  447000000 cycles:  637539464 heartbeat IPC: 0.79962 cumulative IPC: 0.62009 (Simulation time: 0 hr 22 min 26 sec) 
Heartbeat CPU  0 instructions:  448000000 cycles:  638784900 heartbeat IPC: 0.80293 cumulative IPC: 0.62050 (Simulation time: 0 hr 22 min 29 sec) 
Heartbeat CPU  0 instructions:  449000003 cycles:  640036257 heartbeat IPC: 0.79913 cumulative IPC: 0.62090 (Simulation time: 0 hr 22 min 32 sec) 
Heartbeat CPU  0 instructions:  450000000 cycles:  641280229 heartbeat IPC: 0.80387 cumulative IPC: 0.62130 (Simulation time: 0 hr 22 min 35 sec) 
Heartbeat CPU  0 instructions:  451000003 cycles:  642520829 heartbeat IPC: 0.80606 cumulative IPC: 0.62171 (Simulation time: 0 hr 22 min 38 sec) 
Heartbeat CPU  0 instructions:  452000000 cycles:  643759269 heartbeat IPC: 0.80747 cumulative IPC: 0.62211 (Simulation time: 0 hr 22 min 41 sec) 
Heartbeat CPU  0 instructions:  453000003 cycles:  645002069 heartbeat IPC: 0.80464 cumulative IPC: 0.62251 (Simulation time: 0 hr 22 min 44 sec) 
Heartbeat CPU  0 instructions:  454000001 cycles:  646440874 heartbeat IPC: 0.69502 cumulative IPC: 0.62270 (Simulation time: 0 hr 22 min 47 sec) 
Heartbeat CPU  0 instructions:  455000003 cycles:  647701345 heartbeat IPC: 0.79336 cumulative IPC: 0.62307 (Simulation time: 0 hr 22 min 50 sec) 
Heartbeat CPU  0 instructions:  456000000 cycles:  648958417 heartbeat IPC: 0.79550 cumulative IPC: 0.62345 (Simulation time: 0 hr 22 min 53 sec) 
Heartbeat CPU  0 instructions:  457000001 cycles:  650210104 heartbeat IPC: 0.79892 cumulative IPC: 0.62384 (Simulation time: 0 hr 22 min 56 sec) 
Heartbeat CPU  0 instructions:  458000003 cycles:  651458345 heartbeat IPC: 0.80113 cumulative IPC: 0.62422 (Simulation time: 0 hr 22 min 59 sec) 
Heartbeat CPU  0 instructions:  459000001 cycles:  652706997 heartbeat IPC: 0.80086 cumulative IPC: 0.62461 (Simulation time: 0 hr 23 min 2 sec) 
Heartbeat CPU  0 instructions:  460000000 cycles:  653957510 heartbeat IPC: 0.79967 cumulative IPC: 0.62499 (Simulation time: 0 hr 23 min 5 sec) 
Heartbeat CPU  0 instructions:  461000003 cycles:  655216691 heartbeat IPC: 0.79417 cumulative IPC: 0.62536 (Simulation time: 0 hr 23 min 8 sec) 
Heartbeat CPU  0 instructions:  462000001 cycles:  656459363 heartbeat IPC: 0.80472 cumulative IPC: 0.62574 (Simulation time: 0 hr 23 min 11 sec) 
Heartbeat CPU  0 instructions:  463000000 cycles:  657711617 heartbeat IPC: 0.79856 cumulative IPC: 0.62611 (Simulation time: 0 hr 23 min 14 sec) 
Heartbeat CPU  0 instructions:  464000000 cycles:  658964044 heartbeat IPC: 0.79845 cumulative IPC: 0.62649 (Simulation time: 0 hr 23 min 17 sec) 
Heartbeat CPU  0 instructions:  465000001 cycles:  660215652 heartbeat IPC: 0.79897 cumulative IPC: 0.62686 (Simulation time: 0 hr 23 min 20 sec) 
Heartbeat CPU  0 instructions:  466000003 cycles:  661454403 heartbeat IPC: 0.80727 cumulative IPC: 0.62724 (Simulation time: 0 hr 23 min 23 sec) 
Heartbeat CPU  0 instructions:  467000003 cycles:  662700424 heartbeat IPC: 0.80255 cumulative IPC: 0.62761 (Simulation time: 0 hr 23 min 26 sec) 
Heartbeat CPU  0 instructions:  468000000 cycles:  663944821 heartbeat IPC: 0.80360 cumulative IPC: 0.62799 (Simulation time: 0 hr 23 min 29 sec) 
Heartbeat CPU  0 instructions:  469000002 cycles:  665381041 heartbeat IPC: 0.69627 cumulative IPC: 0.62815 (Simulation time: 0 hr 23 min 32 sec) 
Heartbeat CPU  0 instructions:  470000000 cycles:  668082275 heartbeat IPC: 0.37020 cumulative IPC: 0.62697 (Simulation time: 0 hr 23 min 36 sec) 
Heartbeat CPU  0 instructions:  471000001 cycles:  670767733 heartbeat IPC: 0.37238 cumulative IPC: 0.62582 (Simulation time: 0 hr 23 min 39 sec) 
Heartbeat CPU  0 instructions:  472000000 cycles:  673446329 heartbeat IPC: 0.37333 cumulative IPC: 0.62468 (Simulation time: 0 hr 23 min 43 sec) 
Heartbeat CPU  0 instructions:  473000001 cycles:  676125122 heartbeat IPC: 0.37330 cumulative IPC: 0.62356 (Simulation time: 0 hr 23 min 47 sec) 
Heartbeat CPU  0 instructions:  474000003 cycles:  678811742 heartbeat IPC: 0.37222 cumulative IPC: 0.62243 (Simulation time: 0 hr 23 min 50 sec) 
Heartbeat CPU  0 instructions:  475000002 cycles:  681496953 heartbeat IPC: 0.37241 cumulative IPC: 0.62132 (Simulation time: 0 hr 23 min 54 sec) 
Heartbeat CPU  0 instructions:  476000000 cycles:  684180898 heartbeat IPC: 0.37259 cumulative IPC: 0.62022 (Simulation time: 0 hr 23 min 57 sec) 
Heartbeat CPU  0 instructions:  477000003 cycles:  686861708 heartbeat IPC: 0.37302 cumulative IPC: 0.61913 (Simulation time: 0 hr 24 min 1 sec) 
Heartbeat CPU  0 instructions:  478000000 cycles:  689539461 heartbeat IPC: 0.37345 cumulative IPC: 0.61806 (Simulation time: 0 hr 24 min 5 sec) 
Heartbeat CPU  0 instructions:  479000001 cycles:  692216745 heartbeat IPC: 0.37351 cumulative IPC: 0.61699 (Simulation time: 0 hr 24 min 8 sec) 
Heartbeat CPU  0 instructions:  480000000 cycles:  694891824 heartbeat IPC: 0.37382 cumulative IPC: 0.61594 (Simulation time: 0 hr 24 min 12 sec) 
Heartbeat CPU  0 instructions:  481000001 cycles:  697635534 heartbeat IPC: 0.36447 cumulative IPC: 0.61482 (Simulation time: 0 hr 24 min 15 sec) 
Heartbeat CPU  0 instructions:  482000000 cycles:  700359328 heartbeat IPC: 0.36713 cumulative IPC: 0.61374 (Simulation time: 0 hr 24 min 19 sec) 
Heartbeat CPU  0 instructions:  483000001 cycles:  703035161 heartbeat IPC: 0.37372 cumulative IPC: 0.61271 (Simulation time: 0 hr 24 min 23 sec) 
Heartbeat CPU  0 instructions:  484000000 cycles:  705712411 heartbeat IPC: 0.37352 cumulative IPC: 0.61169 (Simulation time: 0 hr 24 min 27 sec) 
Heartbeat CPU  0 instructions:  485000001 cycles:  708392207 heartbeat IPC: 0.37316 cumulative IPC: 0.61068 (Simulation time: 0 hr 24 min 32 sec) 
Heartbeat CPU  0 instructions:  486000002 cycles:  711068328 heartbeat IPC: 0.37368 cumulative IPC: 0.60968 (Simulation time: 0 hr 24 min 35 sec) 
Heartbeat CPU  0 instructions:  487000003 cycles:  713741158 heartbeat IPC: 0.37414 cumulative IPC: 0.60869 (Simulation time: 0 hr 24 min 39 sec) 
Heartbeat CPU  0 instructions:  488000000 cycles:  716417637 heartbeat IPC: 0.37362 cumulative IPC: 0.60770 (Simulation time: 0 hr 24 min 43 sec) 
Heartbeat CPU  0 instructions:  489000002 cycles:  719099690 heartbeat IPC: 0.37285 cumulative IPC: 0.60672 (Simulation time: 0 hr 24 min 47 sec) 
Heartbeat CPU  0 instructions:  490000003 cycles:  721781431 heartbeat IPC: 0.37289 cumulative IPC: 0.60574 (Simulation time: 0 hr 24 min 51 sec) 
Heartbeat CPU  0 instructions:  491000000 cycles:  724462873 heartbeat IPC: 0.37293 cumulative IPC: 0.60478 (Simulation time: 0 hr 24 min 54 sec) 
Heartbeat CPU  0 instructions:  492000000 cycles:  727142833 heartbeat IPC: 0.37314 cumulative IPC: 0.60382 (Simulation time: 0 hr 24 min 58 sec) 
Heartbeat CPU  0 instructions:  493000002 cycles:  729819424 heartbeat IPC: 0.37361 cumulative IPC: 0.60288 (Simulation time: 0 hr 25 min 2 sec) 
Heartbeat CPU  0 instructions:  494000002 cycles:  731608373 heartbeat IPC: 0.55899 cumulative IPC: 0.60276 (Simulation time: 0 hr 25 min 5 sec) 
Heartbeat CPU  0 instructions:  495000003 cycles:  733182220 heartbeat IPC: 0.63539 cumulative IPC: 0.60284 (Simulation time: 0 hr 25 min 8 sec) 
Heartbeat CPU  0 instructions:  496000000 cycles:  734755978 heartbeat IPC: 0.63542 cumulative IPC: 0.60291 (Simulation time: 0 hr 25 min 12 sec) 
Heartbeat CPU  0 instructions:  497000002 cycles:  736319275 heartbeat IPC: 0.63968 cumulative IPC: 0.60300 (Simulation time: 0 hr 25 min 16 sec) 
Heartbeat CPU  0 instructions:  498000002 cycles:  737883074 heartbeat IPC: 0.63947 cumulative IPC: 0.60309 (Simulation time: 0 hr 25 min 20 sec) 
Heartbeat CPU  0 instructions:  499000002 cycles:  739433283 heartbeat IPC: 0.64507 cumulative IPC: 0.60319 (Simulation time: 0 hr 25 min 23 sec) 
Heartbeat CPU  0 instructions:  500000000 cycles:  740965750 heartbeat IPC: 0.65254 cumulative IPC: 0.60330 (Simulation time: 0 hr 25 min 26 sec) 
Heartbeat CPU  0 instructions:  501000000 cycles:  742479220 heartbeat IPC: 0.66073 cumulative IPC: 0.60343 (Simulation time: 0 hr 25 min 29 sec) 
Heartbeat CPU  0 instructions:  502000001 cycles:  744037311 heartbeat IPC: 0.64181 cumulative IPC: 0.60352 (Simulation time: 0 hr 25 min 33 sec) 
Heartbeat CPU  0 instructions:  503000001 cycles:  745594406 heartbeat IPC: 0.64222 cumulative IPC: 0.60361 (Simulation time: 0 hr 25 min 36 sec) 
Heartbeat CPU  0 instructions:  504000000 cycles:  747130543 heartbeat IPC: 0.65098 cumulative IPC: 0.60372 (Simulation time: 0 hr 25 min 39 sec) 
Heartbeat CPU  0 instructions:  505000000 cycles:  748705925 heartbeat IPC: 0.63477 cumulative IPC: 0.60379 (Simulation time: 0 hr 25 min 42 sec) 
Heartbeat CPU  0 instructions:  506000001 cycles:  750479289 heartbeat IPC: 0.56390 cumulative IPC: 0.60369 (Simulation time: 0 hr 25 min 45 sec) 
Heartbeat CPU  0 instructions:  507000002 cycles:  752015464 heartbeat IPC: 0.65097 cumulative IPC: 0.60379 (Simulation time: 0 hr 25 min 48 sec) 
Heartbeat CPU  0 instructions:  508000000 cycles:  753585791 heartbeat IPC: 0.63681 cumulative IPC: 0.60387 (Simulation time: 0 hr 25 min 51 sec) 
Heartbeat CPU  0 instructions:  509000000 cycles:  755170962 heartbeat IPC: 0.63085 cumulative IPC: 0.60393 (Simulation time: 0 hr 25 min 54 sec) 
Heartbeat CPU  0 instructions:  510000001 cycles:  756774098 heartbeat IPC: 0.62378 cumulative IPC: 0.60398 (Simulation time: 0 hr 25 min 57 sec) 
Heartbeat CPU  0 instructions:  511000002 cycles:  758346627 heartbeat IPC: 0.63592 cumulative IPC: 0.60406 (Simulation time: 0 hr 26 min 0 sec) 
Heartbeat CPU  0 instructions:  512000000 cycles:  759930342 heartbeat IPC: 0.63143 cumulative IPC: 0.60412 (Simulation time: 0 hr 26 min 4 sec) 
Heartbeat CPU  0 instructions:  513000002 cycles:  761487147 heartbeat IPC: 0.64234 cumulative IPC: 0.60421 (Simulation time: 0 hr 26 min 7 sec) 
Heartbeat CPU  0 instructions:  514000001 cycles:  763029246 heartbeat IPC: 0.64847 cumulative IPC: 0.60431 (Simulation time: 0 hr 26 min 10 sec) 
Heartbeat CPU  0 instructions:  515000000 cycles:  764574740 heartbeat IPC: 0.64704 cumulative IPC: 0.60440 (Simulation time: 0 hr 26 min 14 sec) 
Heartbeat CPU  0 instructions:  516000000 cycles:  766133002 heartbeat IPC: 0.64174 cumulative IPC: 0.60449 (Simulation time: 0 hr 26 min 17 sec) 
Heartbeat CPU  0 instructions:  517000001 cycles:  767681057 heartbeat IPC: 0.64597 cumulative IPC: 0.60458 (Simulation time: 0 hr 26 min 21 sec) 
Heartbeat CPU  0 instructions:  518000001 cycles:  769247390 heartbeat IPC: 0.63843 cumulative IPC: 0.60466 (Simulation time: 0 hr 26 min 24 sec) 
Heartbeat CPU  0 instructions:  519000000 cycles:  770611574 heartbeat IPC: 0.73304 cumulative IPC: 0.60491 (Simulation time: 0 hr 26 min 27 sec) 
Heartbeat CPU  0 instructions:  520000000 cycles:  771974193 heartbeat IPC: 0.73388 cumulative IPC: 0.60516 (Simulation time: 0 hr 26 min 30 sec) 
Heartbeat CPU  0 instructions:  521000000 cycles:  773337986 heartbeat IPC: 0.73325 cumulative IPC: 0.60541 (Simulation time: 0 hr 26 min 33 sec) 
Heartbeat CPU  0 instructions:  522000002 cycles:  774695618 heartbeat IPC: 0.73658 cumulative IPC: 0.60567 (Simulation time: 0 hr 26 min 36 sec) 
Heartbeat CPU  0 instructions:  523000001 cycles:  776061185 heartbeat IPC: 0.73230 cumulative IPC: 0.60592 (Simulation time: 0 hr 26 min 39 sec) 
Heartbeat CPU  0 instructions:  524000000 cycles:  777416015 heartbeat IPC: 0.73810 cumulative IPC: 0.60617 (Simulation time: 0 hr 26 min 42 sec) 
Heartbeat CPU  0 instructions:  525000002 cycles:  778771586 heartbeat IPC: 0.73770 cumulative IPC: 0.60643 (Simulation time: 0 hr 26 min 45 sec) 
Heartbeat CPU  0 instructions:  526000000 cycles:  780127969 heartbeat IPC: 0.73725 cumulative IPC: 0.60668 (Simulation time: 0 hr 26 min 48 sec) 
Heartbeat CPU  0 instructions:  527000001 cycles:  781483844 heartbeat IPC: 0.73753 cumulative IPC: 0.60693 (Simulation time: 0 hr 26 min 51 sec) 
Heartbeat CPU  0 instructions:  528000000 cycles:  782836746 heartbeat IPC: 0.73915 cumulative IPC: 0.60719 (Simulation time: 0 hr 26 min 54 sec) 
Heartbeat CPU  0 instructions:  529000001 cycles:  784180098 heartbeat IPC: 0.74441 cumulative IPC: 0.60745 (Simulation time: 0 hr 26 min 57 sec) 
Heartbeat CPU  0 instructions:  530000001 cycles:  785529700 heartbeat IPC: 0.74096 cumulative IPC: 0.60770 (Simulation time: 0 hr 27 min 0 sec) 
Heartbeat CPU  0 instructions:  531000003 cycles:  786869653 heartbeat IPC: 0.74630 cumulative IPC: 0.60796 (Simulation time: 0 hr 27 min 3 sec) 
Heartbeat CPU  0 instructions:  532000000 cycles:  788217404 heartbeat IPC: 0.74197 cumulative IPC: 0.60822 (Simulation time: 0 hr 27 min 6 sec) 
Heartbeat CPU  0 instructions:  533000003 cycles:  789737955 heartbeat IPC: 0.65766 cumulative IPC: 0.60832 (Simulation time: 0 hr 27 min 9 sec) 
Heartbeat CPU  0 instructions:  534000003 cycles:  791102542 heartbeat IPC: 0.73282 cumulative IPC: 0.60856 (Simulation time: 0 hr 27 min 12 sec) 
Heartbeat CPU  0 instructions:  535000003 cycles:  792467308 heartbeat IPC: 0.73273 cumulative IPC: 0.60880 (Simulation time: 0 hr 27 min 16 sec) 
Heartbeat CPU  0 instructions:  536000000 cycles:  793818363 heartbeat IPC: 0.74016 cumulative IPC: 0.60905 (Simulation time: 0 hr 27 min 19 sec) 
Heartbeat CPU  0 instructions:  537000003 cycles:  795179987 heartbeat IPC: 0.73442 cumulative IPC: 0.60928 (Simulation time: 0 hr 27 min 22 sec) 
Heartbeat CPU  0 instructions:  538000003 cycles:  796541243 heartbeat IPC: 0.73462 cumulative IPC: 0.60952 (Simulation time: 0 hr 27 min 25 sec) 
Heartbeat CPU  0 instructions:  539000003 cycles:  797911648 heartbeat IPC: 0.72971 cumulative IPC: 0.60975 (Simulation time: 0 hr 27 min 28 sec) 
Heartbeat CPU  0 instructions:  540000000 cycles:  799273228 heartbeat IPC: 0.73444 cumulative IPC: 0.60999 (Simulation time: 0 hr 27 min 32 sec) 
Heartbeat CPU  0 instructions:  541000001 cycles:  800625376 heartbeat IPC: 0.73956 cumulative IPC: 0.61023 (Simulation time: 0 hr 27 min 35 sec) 
Heartbeat CPU  0 instructions:  542000001 cycles:  801980860 heartbeat IPC: 0.73774 cumulative IPC: 0.61047 (Simulation time: 0 hr 27 min 38 sec) 
Heartbeat CPU  0 instructions:  543000001 cycles:  803340877 heartbeat IPC: 0.73528 cumulative IPC: 0.61070 (Simulation time: 0 hr 27 min 41 sec) 
Heartbeat CPU  0 instructions:  544000000 cycles:  804692420 heartbeat IPC: 0.73989 cumulative IPC: 0.61094 (Simulation time: 0 hr 27 min 44 sec) 
Heartbeat CPU  0 instructions:  545000003 cycles:  806038751 heartbeat IPC: 0.74276 cumulative IPC: 0.61119 (Simulation time: 0 hr 27 min 47 sec) 
Heartbeat CPU  0 instructions:  546000003 cycles:  807379205 heartbeat IPC: 0.74602 cumulative IPC: 0.61143 (Simulation time: 0 hr 27 min 50 sec) 
Heartbeat CPU  0 instructions:  547000001 cycles:  808724819 heartbeat IPC: 0.74315 cumulative IPC: 0.61168 (Simulation time: 0 hr 27 min 53 sec) 
Heartbeat CPU  0 instructions:  548000000 cycles:  810066764 heartbeat IPC: 0.74519 cumulative IPC: 0.61192 (Simulation time: 0 hr 27 min 56 sec) 
Heartbeat CPU  0 instructions:  549000003 cycles:  812669141 heartbeat IPC: 0.38427 cumulative IPC: 0.61111 (Simulation time: 0 hr 27 min 59 sec) 
Heartbeat CPU  0 instructions:  550000000 cycles:  815387729 heartbeat IPC: 0.36784 cumulative IPC: 0.61022 (Simulation time: 0 hr 28 min 3 sec) 
Heartbeat CPU  0 instructions:  551000003 cycles:  818113101 heartbeat IPC: 0.36692 cumulative IPC: 0.60932 (Simulation time: 0 hr 28 min 7 sec) 
Heartbeat CPU  0 instructions:  552000000 cycles:  820824786 heartbeat IPC: 0.36877 cumulative IPC: 0.60844 (Simulation time: 0 hr 28 min 10 sec) 
Heartbeat CPU  0 instructions:  553000000 cycles:  823533838 heartbeat IPC: 0.36913 cumulative IPC: 0.60757 (Simulation time: 0 hr 28 min 14 sec) 
Heartbeat CPU  0 instructions:  554000001 cycles:  826238201 heartbeat IPC: 0.36977 cumulative IPC: 0.60671 (Simulation time: 0 hr 28 min 18 sec) 
Heartbeat CPU  0 instructions:  555000000 cycles:  828955015 heartbeat IPC: 0.36808 cumulative IPC: 0.60585 (Simulation time: 0 hr 28 min 22 sec) 
Heartbeat CPU  0 instructions:  556000000 cycles:  831668015 heartbeat IPC: 0.36860 cumulative IPC: 0.60500 (Simulation time: 0 hr 28 min 25 sec) 
Heartbeat CPU  0 instructions:  557000001 cycles:  834381100 heartbeat IPC: 0.36858 cumulative IPC: 0.60415 (Simulation time: 0 hr 28 min 29 sec) 
Heartbeat CPU  0 instructions:  558000003 cycles:  837090780 heartbeat IPC: 0.36905 cumulative IPC: 0.60331 (Simulation time: 0 hr 28 min 33 sec) 
Heartbeat CPU  0 instructions:  559000002 cycles:  839790272 heartbeat IPC: 0.37044 cumulative IPC: 0.60248 (Simulation time: 0 hr 28 min 36 sec) 
Heartbeat CPU  0 instructions:  560000000 cycles:  842502933 heartbeat IPC: 0.36864 cumulative IPC: 0.60166 (Simulation time: 0 hr 28 min 40 sec) 
Heartbeat CPU  0 instructions:  561000003 cycles:  845324799 heartbeat IPC: 0.35438 cumulative IPC: 0.60075 (Simulation time: 0 hr 28 min 44 sec) 
Heartbeat CPU  0 instructions:  562000001 cycles:  848052724 heartbeat IPC: 0.36658 cumulative IPC: 0.59992 (Simulation time: 0 hr 28 min 48 sec) 
Heartbeat CPU  0 instructions:  563000003 cycles:  850783210 heartbeat IPC: 0.36624 cumulative IPC: 0.59909 (Simulation time: 0 hr 28 min 52 sec) 
Heartbeat CPU  0 instructions:  564000000 cycles:  853510178 heartbeat IPC: 0.36671 cumulative IPC: 0.59827 (Simulation time: 0 hr 28 min 55 sec) 
Heartbeat CPU  0 instructions:  565000001 cycles:  856237815 heartbeat IPC: 0.36662 cumulative IPC: 0.59746 (Simulation time: 0 hr 28 min 59 sec) 
Heartbeat CPU  0 instructions:  566000001 cycles:  858966225 heartbeat IPC: 0.36651 cumulative IPC: 0.59666 (Simulation time: 0 hr 29 min 2 sec) 
Heartbeat CPU  0 instructions:  567000002 cycles:  861692292 heartbeat IPC: 0.36683 cumulative IPC: 0.59586 (Simulation time: 0 hr 29 min 6 sec) 
Heartbeat CPU  0 instructions:  568000000 cycles:  864424539 heartbeat IPC: 0.36600 cumulative IPC: 0.59506 (Simulation time: 0 hr 29 min 9 sec) 
Heartbeat CPU  0 instructions:  569000001 cycles:  867151590 heartbeat IPC: 0.36670 cumulative IPC: 0.59427 (Simulation time: 0 hr 29 min 13 sec) 
Heartbeat CPU  0 instructions:  570000000 cycles:  869877989 heartbeat IPC: 0.36678 cumulative IPC: 0.59348 (Simulation time: 0 hr 29 min 16 sec) 
Heartbeat CPU  0 instructions:  571000002 cycles:  872601470 heartbeat IPC: 0.36718 cumulative IPC: 0.59271 (Simulation time: 0 hr 29 min 20 sec) 
Heartbeat CPU  0 instructions:  572000000 cycles:  875327162 heartbeat IPC: 0.36688 cumulative IPC: 0.59194 (Simulation time: 0 hr 29 min 24 sec) 
Heartbeat CPU  0 instructions:  573000000 cycles:  877409697 heartbeat IPC: 0.48018 cumulative IPC: 0.59165 (Simulation time: 0 hr 29 min 27 sec) 
Heartbeat CPU  0 instructions:  574000002 cycles:  878965662 heartbeat IPC: 0.64269 cumulative IPC: 0.59175 (Simulation time: 0 hr 29 min 31 sec) 
Heartbeat CPU  0 instructions:  575000000 cycles:  880520967 heartbeat IPC: 0.64296 cumulative IPC: 0.59184 (Simulation time: 0 hr 29 min 35 sec) 
Heartbeat CPU  0 instructions:  576000000 cycles:  882083264 heartbeat IPC: 0.64008 cumulative IPC: 0.59194 (Simulation time: 0 hr 29 min 38 sec) 
Heartbeat CPU  0 instructions:  577000001 cycles:  883626068 heartbeat IPC: 0.64817 cumulative IPC: 0.59205 (Simulation time: 0 hr 29 min 41 sec) 
Heartbeat CPU  0 instructions:  578000000 cycles:  885193746 heartbeat IPC: 0.63789 cumulative IPC: 0.59214 (Simulation time: 0 hr 29 min 44 sec) 
Heartbeat CPU  0 instructions:  579000000 cycles:  886774333 heartbeat IPC: 0.63268 cumulative IPC: 0.59221 (Simulation time: 0 hr 29 min 48 sec) 
Heartbeat CPU  0 instructions:  580000000 cycles:  888328510 heartbeat IPC: 0.64343 cumulative IPC: 0.59231 (Simulation time: 0 hr 29 min 51 sec) 
Heartbeat CPU  0 instructions:  581000001 cycles:  889905926 heartbeat IPC: 0.63395 cumulative IPC: 0.59239 (Simulation time: 0 hr 29 min 54 sec) 
Heartbeat CPU  0 instructions:  582000003 cycles:  891490840 heartbeat IPC: 0.63095 cumulative IPC: 0.59247 (Simulation time: 0 hr 29 min 57 sec) 
Heartbeat CPU  0 instructions:  583000000 cycles:  893083351 heartbeat IPC: 0.62794 cumulative IPC: 0.59254 (Simulation time: 0 hr 30 min 0 sec) 
Heartbeat CPU  0 instructions:  584000000 cycles:  894664515 heartbeat IPC: 0.63245 cumulative IPC: 0.59262 (Simulation time: 0 hr 30 min 3 sec) 
Heartbeat CPU  0 instructions:  585000002 cycles:  896465723 heartbeat IPC: 0.55518 cumulative IPC: 0.59253 (Simulation time: 0 hr 30 min 6 sec) 
Heartbeat CPU  0 instructions:  586000001 cycles:  898066462 heartbeat IPC: 0.62471 cumulative IPC: 0.59260 (Simulation time: 0 hr 30 min 9 sec) 
Heartbeat CPU  0 instructions:  587000000 cycles:  899669574 heartbeat IPC: 0.62379 cumulative IPC: 0.59266 (Simulation time: 0 hr 30 min 12 sec) 
Heartbeat CPU  0 instructions:  588000000 cycles:  901283954 heartbeat IPC: 0.61943 cumulative IPC: 0.59271 (Simulation time: 0 hr 30 min 16 sec) 
Heartbeat CPU  0 instructions:  589000001 cycles:  902901450 heartbeat IPC: 0.61824 cumulative IPC: 0.59276 (Simulation time: 0 hr 30 min 19 sec) 
Heartbeat CPU  0 instructions:  590000001 cycles:  904517618 heartbeat IPC: 0.61875 cumulative IPC: 0.59281 (Simulation time: 0 hr 30 min 22 sec) 
Heartbeat CPU  0 instructions:  591000000 cycles:  906130565 heartbeat IPC: 0.61998 cumulative IPC: 0.59286 (Simulation time: 0 hr 30 min 25 sec) 
Heartbeat CPU  0 instructions:  592000000 cycles:  907747549 heartbeat IPC: 0.61844 cumulative IPC: 0.59291 (Simulation time: 0 hr 30 min 28 sec) 
Heartbeat CPU  0 instructions:  593000002 cycles:  909375499 heartbeat IPC: 0.61427 cumulative IPC: 0.59295 (Simulation time: 0 hr 30 min 31 sec) 
Heartbeat CPU  0 instructions:  594000001 cycles:  910963805 heartbeat IPC: 0.62960 cumulative IPC: 0.59302 (Simulation time: 0 hr 30 min 35 sec) 
Heartbeat CPU  0 instructions:  595000002 cycles:  912558054 heartbeat IPC: 0.62726 cumulative IPC: 0.59309 (Simulation time: 0 hr 30 min 38 sec) 
Heartbeat CPU  0 instructions:  596000000 cycles:  914138813 heartbeat IPC: 0.63261 cumulative IPC: 0.59316 (Simulation time: 0 hr 30 min 41 sec) 
Heartbeat CPU  0 instructions:  597000003 cycles:  915773988 heartbeat IPC: 0.61156 cumulative IPC: 0.59320 (Simulation time: 0 hr 30 min 44 sec) 
Heartbeat CPU  0 instructions:  598000002 cycles:  917137227 heartbeat IPC: 0.73355 cumulative IPC: 0.59343 (Simulation time: 0 hr 30 min 47 sec) 
Heartbeat CPU  0 instructions:  599000002 cycles:  918496365 heartbeat IPC: 0.73576 cumulative IPC: 0.59366 (Simulation time: 0 hr 30 min 51 sec) 
Heartbeat CPU  0 instructions:  600000000 cycles:  919853735 heartbeat IPC: 0.73672 cumulative IPC: 0.59389 (Simulation time: 0 hr 30 min 54 sec) 
Finished CPU 0 instructions: 500000000 cycles: 841908296 cumulative IPC: 0.59389 (Simulation time: 0 hr 30 min 54 sec) 

ChampSim completed all CPUs

[ROI Statistics]
Core_0_instructions 500000000
Core_0_cycles 841908296
Core_0_IPC 0.59389

Core_0_branch_prediction_accuracy 99.79948
Core_0_branch_MPKI 0.03552
Core_0_average_ROB_occupancy_at_mispredict 248.21411

Core_0_L1D_total_access 242747918
Core_0_L1D_total_hit 230469726
Core_0_L1D_total_miss 12278192
Core_0_L1D_loads 218515877
Core_0_L1D_load_hit 206413197
Core_0_L1D_load_miss 12102680
Core_0_L1D_RFOs 24232041
Core_0_L1D_RFO_hit 24056529
Core_0_L1D_RFO_miss 175512
Core_0_L1D_prefetches 0
Core_0_L1D_prefetch_hit 0
Core_0_L1D_prefetch_miss 0
Core_0_L1D_writebacks 0
Core_0_L1D_writeback_hit 0
Core_0_L1D_writeback_miss 0
Core_0_L1D_prefetch_requested 0
Core_0_L1D_prefetch_dropped 0
Core_0_L1D_prefetch_issued 0
Core_0_L1D_prefetch_filled 0
Core_0_L1D_prefetch_useful 0
Core_0_L1D_prefetch_useless 0
Core_0_L1D_prefetch_late 0
Core_0_L1D_average_miss_latency 52.79853

Core_0_L1D_rq_access 258731969
Core_0_L1D_rq_forward 0
Core_0_L1D_rq_merged 39398257
Core_0_L1D_rq_to_cache 219333712
Core_0_L1D_rq_full 0

Core_0_L1D_wq_access 25182875
Core_0_L1D_wq_forward 0
Core_0_L1D_wq_merged 212769
Core_0_L1D_wq_to_cache 24970106
Core_0_L1D_wq_full 165474

Core_0_L1D_pq_access 0
Core_0_L1D_pq_forward 0
Core_0_L1D_pq_merged 0
Core_0_L1D_pq_to_cache 0
Core_0_L1D_pq_full 0

Core_0_L1D_acc_epochs 849545
Core_0_L1D_acc_level_0 849545
Core_0_L1D_acc_level_1 0
Core_0_L1D_acc_level_2 0
Core_0_L1D_acc_level_3 0
Core_0_L1D_acc_level_4 0
Core_0_L1D_acc_level_5 0
Core_0_L1D_acc_level_6 0
Core_0_L1D_acc_level_7 0
Core_0_L1D_acc_level_8 0
Core_0_L1D_acc_level_9 0

Core_0_L1I_total_access 131459771
Core_0_L1I_total_hit 131459122
Core_0_L1I_total_miss 649
Core_0_L1I_loads 131459771
Core_0_L1I_load_hit 131459122
Core_0_L1I_load_miss 649
Core_0_L1I_RFOs 0
Core_0_L1I_RFO_hit 0
Core_0_L1I_RFO_miss 0
Core_0_L1I_prefetches 0
Core_0_L1I_prefetch_hit 0
Core_0_L1I_prefetch_miss 0
Core_0_L1I_writebacks 0
Core_0_L1I_writeback_hit 0
Core_0_L1I_writeback_miss 0
Core_0_L1I_prefetch_requested 0
Core_0_L1I_prefetch_dropped 0
Core_0_L1I_prefetch_issued 0
Core_0_L1I_prefetch_filled 0
Core_0_L1I_prefetch_useful 0
Core_0_L1I_prefetch_useless 0
Core_0_L1I_prefetch_late 0
Core_0_L1I_average_miss_latency 203.27581

Core_0_L1I_rq_access 500000002
Core_0_L1I_rq_forward 0
Core_0_L1I_rq_merged 368539755
Core_0_L1I_rq_to_cache 131460247
Core_0_L1I_rq_full 0

Core_0_L1I_wq_access 0
Core_0_L1I_wq_forward 0
Core_0_L1I_wq_merged 0
Core_0_L1I_wq_to_cache 0
Core_0_L1I_wq_full 0

Core_0_L1I_pq_access 0
Core_0_L1I_pq_forward 0
Core_0_L1I_pq_merged 0
Core_0_L1I_pq_to_cache 0
Core_0_L1I_pq_full 0

Core_0_L1I_acc_epochs 849545
Core_0_L1I_acc_level_0 849545
Core_0_L1I_acc_level_1 0
Core_0_L1I_acc_level_2 0
Core_0_L1I_acc_level_3 0
Core_0_L1I_acc_level_4 0
Core_0_L1I_acc_level_5 0
Core_0_L1I_acc_level_6 0
Core_0_L1I_acc_level_7 0
Core_0_L1I_acc_level_8 0
Core_0_L1I_acc_level_9 0

Core_0_L2C_total_access 23729773
Core_0_L2C_total_hit 19212845
Core_0_L2C_total_miss 4516928
Core_0_L2C_loads 12103018
Core_0_L2C_load_hit 8970308
Core_0_L2C_load_miss 3132710
Core_0_L2C_RFOs 175472
Core_0_L2C_RFO_hit 5551
Core_0_L2C_RFO_miss 169921
Core_0_L2C_prefetches 8831093
Core_0_L2C_prefetch_hit 7617373
Core_0_L2C_prefetch_miss 1213720
Core_0_L2C_writebacks 2620190
Core_0_L2C_writeback_hit 2619613
Core_0_L2C_writeback_miss 577
Core_0_L2C_prefetch_requested 21436536
Core_0_L2C_prefetch_dropped 3
Core_0_L2C_prefetch_issued 21436533
Core_0_L2C_prefetch_filled 1605586
Core_0_L2C_prefetch_useful 1440189
Core_0_L2C_prefetch_useless 165324
Core_0_L2C_prefetch_late 37286
Core_0_L2C_average_miss_latency 114.47530

Core_0_L2C_rq_access 12278841
Core_0_L2C_rq_forward 0
Core_0_L2C_rq_merged 0
Core_0_L2C_rq_to_cache 12278490
Core_0_L2C_rq_full 0

Core_0_L2C_wq_access 2620190
Core_0_L2C_wq_forward 351
Core_0_L2C_wq_merged 0
Core_0_L2C_wq_to_cache 2620190
Core_0_L2C_wq_full 0

Core_0_L2C_pq_access 21436533
Core_0_L2C_pq_forward 0
Core_0_L2C_pq_merged 72375
Core_0_L2C_pq_to_cache 21364158
Core_0_L2C_pq_full 0

Core_0_L2C_acc_epochs 849545
Core_0_L2C_acc_level_0 259280
Core_0_L2C_acc_level_1 65262
Core_0_L2C_acc_level_2 57482
Core_0_L2C_acc_level_3 41303
Core_0_L2C_acc_level_4 32850
Core_0_L2C_acc_level_5 58131
Core_0_L2C_acc_level_6 36279
Core_0_L2C_acc_level_7 41227
Core_0_L2C_acc_level_8 50850
Core_0_L2C_acc_level_9 206881

Core_0_LLC_total_access 14747467
Core_0_LLC_total_hit 10064875
Core_0_LLC_total_miss 4682592
Core_0_LLC_loads 3095396
Core_0_LLC_load_hit 1626704
Core_0_LLC_load_miss 1468692
Core_0_LLC_RFOs 169921
Core_0_LLC_RFO_hit 143337
Core_0_LLC_RFO_miss 26584
Core_0_LLC_prefetches 10321782
Core_0_LLC_prefetch_hit 7241278
Core_0_LLC_prefetch_miss 3080504
Core_0_LLC_writebacks 1160368
Core_0_LLC_writeback_hit 1053556
Core_0_LLC_writeback_miss 106812
Core_0_LLC_prefetch_requested 0
Core_0_LLC_prefetch_dropped 0
Core_0_LLC_prefetch_issued 0
Core_0_LLC_prefetch_filled 3752878
Core_0_LLC_prefetch_useful 1224636
Core_0_LLC_prefetch_useless 2520466
Core_0_LLC_prefetch_late 9308
Core_0_LLC_average_miss_latency 218.62127

Core_0_LLC_rq_access 3265345
Core_0_LLC_rq_forward 0
Core_0_LLC_rq_merged 0
Core_0_LLC_rq_to_cache 3265317
Core_0_LLC_rq_full 0

Core_0_LLC_wq_access 1160368
Core_0_LLC_wq_forward 512
Core_0_LLC_wq_merged 0
Core_0_LLC_wq_to_cache 1160368
Core_0_LLC_wq_full 0

Core_0_LLC_pq_access 13292877
Core_0_LLC_pq_forward 0
Core_0_LLC_pq_merged 84436
Core_0_LLC_pq_to_cache 13207957
Core_0_LLC_pq_full 0

Core_0_LLC_acc_epochs 898295
Core_0_LLC_acc_level_0 336979
Core_0_LLC_acc_level_1 118339
Core_0_LLC_acc_level_2 129621
Core_0_LLC_acc_level_3 86649
Core_0_LLC_acc_level_4 50273
Core_0_LLC_acc_level_5 46531
Core_0_LLC_acc_level_6 28690
Core_0_LLC_acc_level_7 19763
Core_0_LLC_acc_level_8 13941
Core_0_LLC_acc_level_9 67509

Core_0_major_page_fault 0
Core_0_minor_page_fault 102074

spp.pref.total 21436536
spp.pref.at_L2 3375699
spp.pref.at_LLC 18060837

spp.depth.max 11
spp.depth.min 0
spp.depth.avg 2

spp.breadth.max 2
spp.breadth.min 0
spp.breadth.avg 0

delta_1 14661011
delta_-1 3294851
delta_11 3121676
delta_23 1778302
delta_12 1603175
delta_22 790909
delta_29 211219
delta_30 150417
delta_-29 105903
delta_2 5571
delta_-2 5127
delta_3 3447
delta_4 2987
delta_5 2930
delta_-3 1518
delta_6 756
delta_7 559
delta_-30 445
delta_-28 381
delta_-9 312
delta_-4 289
delta_8 277
delta_9 223
delta_15 199
delta_-5 127
delta_-8 120
delta_-6 112
delta_59 100
delta_-7 68
delta_-26 59
delta_-25 59
delta_-49 55
delta_-37 45
delta_-12 45
delta_14 11
delta_10 10
delta_-23 5
delta_58 5
delta_-18 4
delta_-22 4
delta_31 4
delta_-41 3
delta_-59 2
delta_-17 1
delta_-32 1

depth_1_delta_1 4404529
depth_1_delta_11 1552421
depth_1_delta_23 1384623
depth_1_delta_12 852565
depth_1_delta_-1 828857
depth_1_delta_22 586038
depth_1_delta_29 195220
depth_1_delta_30 73267
depth_1_delta_-29 30525
depth_1_delta_2 5266
depth_1_delta_3 3265
depth_1_delta_4 2496
depth_1_delta_-2 2371
depth_1_delta_5 2351
depth_1_delta_-3 884
depth_1_delta_6 589
depth_1_delta_7 531
depth_1_delta_-30 440
depth_1_delta_-4 282
depth_1_delta_-9 279
depth_1_delta_-28 268
depth_1_delta_8 267
depth_1_delta_9 209
depth_1_delta_15 198
depth_1_delta_-5 127
depth_1_delta_-8 120
depth_1_delta_-6 112
depth_1_delta_59 100
depth_1_delta_-7 68
depth_1_delta_-25 59
depth_1_delta_-26 59
depth_1_delta_-49 55
depth_1_delta_-37 45
depth_1_delta_-12 45
depth_1_delta_14 11
depth_1_delta_10 10
depth_1_delta_-23 5
depth_1_delta_58 5
depth_1_delta_-18 4
depth_1_delta_-22 4
depth_1_delta_31 4
depth_1_delta_-41 3
depth_1_delta_-59 2
depth_1_delta_-17 1
depth_1_delta_-32 1
depth_2_delta_1 3601611
depth_2_delta_11 1045585
depth_2_delta_-1 799306
depth_2_delta_12 533072
depth_2_delta_23 393550
depth_2_delta_22 204796
depth_2_delta_30 30974
depth_2_delta_-29 27570
depth_2_delta_29 15845
depth_2_delta_-2 2724
depth_2_delta_5 570
depth_2_delta_-3 511
depth_2_delta_4 382
depth_2_delta_2 293
depth_2_delta_3 178
depth_2_delta_6 129
depth_2_delta_-28 113
depth_2_delta_-9 33
depth_2_delta_7 27
depth_2_delta_9 14
depth_2_delta_8 10
depth_2_delta_-4 7
depth_2_delta_-30 5
depth_2_delta_15 1
depth_3_delta_1 2659091
depth_3_delta_-1 771553
depth_3_delta_11 442976
depth_3_delta_12 193999
depth_3_delta_-29 22164
depth_3_delta_30 21964
depth_3_delta_29 154
depth_3_delta_23 128
depth_3_delta_-3 110
depth_3_delta_4 106
depth_3_delta_22 61
depth_3_delta_6 38
depth_3_delta_-2 32
depth_3_delta_2 12
depth_3_delta_5 9
depth_3_delta_3 4
depth_3_delta_7 1
depth_4_delta_1 2284397
depth_4_delta_-1 670525
depth_4_delta_11 79351
depth_4_delta_12 22366
depth_4_delta_-29 16554
depth_4_delta_30 15792
depth_4_delta_22 14
depth_4_delta_-3 13
depth_4_delta_4 3
depth_4_delta_23 1
depth_5_delta_1 1215205
depth_5_delta_-1 223800
depth_5_delta_-29 8204
depth_5_delta_30 7653
depth_5_delta_11 1343
depth_5_delta_12 1173
depth_6_delta_1 265384
depth_6_delta_-29 886
depth_6_delta_-1 810
depth_6_delta_30 767
depth_7_delta_1 114474
depth_8_delta_1 69106
depth_9_delta_1 36724
depth_10_delta_1 10451
depth_11_delta_1 39

Channel_0_RQ_row_buffer_hit 1314995
Channel_0_RQ_row_buffer_miss 3260766
Channel_0_WQ_row_buffer_hit 97851
Channel_0_WQ_row_buffer_miss 697715
Channel_0_WQ_full 35
Channel_0_dbus_congested 2558915

avg_congested_cycle 20

DRAM_bw_pochs 3593179
DRAM_bw_level_0 2314507
DRAM_bw_level_1 685769
DRAM_bw_level_2 373890
DRAM_bw_level_3 219013
