*************************************************
   ChampSim Multicore Out-of-Order Simulator
   Last compiled: Dec 11 2024 17:59:53
*************************************************
parsing config file: /home/functionmain/桌面/Pythia/config/bingo.ini

trace_0 /home/functionmain/桌面/Pythia/traces/459.GemsFDTD-1211B.champsimtrace.xz
adding L2C_PREFETCHER: Bingo
Initialize SHIP state
warmup_instructions 100000000
simulation_instructions 500000000
champsim_seed 263
measure_ipc 0
measure_ipc_epoch 1000
measure_dram_bw 1
measure_dram_bw_epoch 256
measure_cache_acc 1
measure_cache_acc_epoch 1024
l1d_perfect 0
l2c_perfect 0
llc_perfect 0
l1d_semi_perfect 0
l2c_semi_perfect 0
llc_semi_perfect 0
semi_perfect_cache_page_buffer_size 64

num_cpus 1
cpu_freq 4000
dram_io_freq 600
page_size 4096
block_size 64
max_read_per_cycle 8
max_fill_per_cycle 1
dram_channels 1
log2_dram_channels 0
dram_ranks 1
dram_banks 8
dram_rows 65536
dram_columns 128
dram_row_size 8
dram_size 4096
dram_pages 1048576

fetch_width 6
decode_width 6
exec_width 4
lq_width 2
sq_width 2
retire_width 4
scheduler_size 128
branch_mispredict_penalty 20
rob_size 256
lq_size 72
sq_size 56
num_instr_destinations_sparc 4
num_instr_destinations 2
num_instr_sources 4

itlb_set 16
itlb_way 8
itlb_rq_size 16
itlb_wq_size 16
itlb_pq_size 0
itlb_mshr_size 8
itlb_latency 1

dtlb_set 16
dtlb_way 4
dtlb_rq_size 16
dtlb_wq_size 16
dtlb_pq_size 0
dtlb_mshr_size 8
dtlb_latency 1

stlb_set 128
stlb_way 12
stlb_rq_size 32
stlb_wq_size 32
stlb_pq_size 0
stlb_mshr_size 16
stlb_latency 8

l1i_size 32
l1i_set 64
l1i_way 8
l1i_rq_size 64
l1i_wq_size 64
l1i_pq_size 8
l1i_mshr_size 8
l1i_latency 1

l1d_size 32
l1d_set 64
l1d_way 8
l1d_rq_size 64
l1d_wq_size 64
l1d_pq_size 8
l1d_mshr_size 16
l1d_latency 4

l2c_size 256
l2c_set 512
l2c_way 8
l2c_rq_size 32
l2c_wq_size 32
l2c_pq_size 32
l2c_mshr_size 32
l2c_latency 10

llc_size 2048
llc_set 2048
llc_way 16
llc_rq_size 32
llc_wq_size 32
llc_pq_size 32
llc_mshr_size 64
llc_latency 20

dram_channel_width 8
dram_wq_size 64
dram_rq_size 64
tRP 15
tRCD 15
tCAS 12.5
dram_dbus_turn_around_time 30
dram_write_high_wm 56
dram_write_low_wm 48
min_dram_writes_per_switch 16
dram_mtps 600
dram_dbus_return_time 53

bingo_region_size 2048
bingo_pattern_len 32
bingo_pc_width 16
bingo_min_addr_width 5
bingo_max_addr_width 16
bingo_ft_size 64
bingo_at_size 128
bingo_pht_size 4096
bingo_pht_ways 16
bingo_pf_streamer_size 128
bingo_debug_level 0
bingo_l1d_thresh 1.01
bingo_l2c_thresh 0.8
bingo_llc_thresh 0.05
bingo_pc_address_fill_level L2


Heartbeat CPU  0 instructions:    1000003 cycles:     792437 heartbeat IPC: 1.26193 cumulative IPC: 1.26193 (Simulation time: 0 hr 0 min 2 sec) 
Heartbeat CPU  0 instructions:    2000002 cycles:    1584171 heartbeat IPC: 1.26305 cumulative IPC: 1.26249 (Simulation time: 0 hr 0 min 5 sec) 
Heartbeat CPU  0 instructions:    3000003 cycles:    2375955 heartbeat IPC: 1.26297 cumulative IPC: 1.26265 (Simulation time: 0 hr 0 min 7 sec) 
Heartbeat CPU  0 instructions:    4000000 cycles:    3167748 heartbeat IPC: 1.26295 cumulative IPC: 1.26273 (Simulation time: 0 hr 0 min 10 sec) 
Heartbeat CPU  0 instructions:    5000000 cycles:    3959644 heartbeat IPC: 1.26279 cumulative IPC: 1.26274 (Simulation time: 0 hr 0 min 12 sec) 
Heartbeat CPU  0 instructions:    6000002 cycles:    4751420 heartbeat IPC: 1.26299 cumulative IPC: 1.26278 (Simulation time: 0 hr 0 min 15 sec) 
Heartbeat CPU  0 instructions:    7000000 cycles:    5543132 heartbeat IPC: 1.26308 cumulative IPC: 1.26282 (Simulation time: 0 hr 0 min 17 sec) 
Heartbeat CPU  0 instructions:    8000000 cycles:    6335037 heartbeat IPC: 1.26278 cumulative IPC: 1.26282 (Simulation time: 0 hr 0 min 20 sec) 
Heartbeat CPU  0 instructions:    9000000 cycles:    7126838 heartbeat IPC: 1.26294 cumulative IPC: 1.26283 (Simulation time: 0 hr 0 min 22 sec) 
Heartbeat CPU  0 instructions:   10000001 cycles:    7918441 heartbeat IPC: 1.26326 cumulative IPC: 1.26287 (Simulation time: 0 hr 0 min 25 sec) 
Heartbeat CPU  0 instructions:   11000000 cycles:    8709976 heartbeat IPC: 1.26337 cumulative IPC: 1.26292 (Simulation time: 0 hr 0 min 27 sec) 
Heartbeat CPU  0 instructions:   12000000 cycles:    9501805 heartbeat IPC: 1.26290 cumulative IPC: 1.26292 (Simulation time: 0 hr 0 min 30 sec) 
Heartbeat CPU  0 instructions:   13000000 cycles:   10293637 heartbeat IPC: 1.26289 cumulative IPC: 1.26292 (Simulation time: 0 hr 0 min 32 sec) 
Heartbeat CPU  0 instructions:   14000002 cycles:   11085335 heartbeat IPC: 1.26311 cumulative IPC: 1.26293 (Simulation time: 0 hr 0 min 35 sec) 
Heartbeat CPU  0 instructions:   15000000 cycles:   11877176 heartbeat IPC: 1.26288 cumulative IPC: 1.26293 (Simulation time: 0 hr 0 min 37 sec) 
Heartbeat CPU  0 instructions:   16000000 cycles:   12668896 heartbeat IPC: 1.26307 cumulative IPC: 1.26294 (Simulation time: 0 hr 0 min 40 sec) 
Heartbeat CPU  0 instructions:   17000001 cycles:   13460729 heartbeat IPC: 1.26289 cumulative IPC: 1.26293 (Simulation time: 0 hr 0 min 43 sec) 
Heartbeat CPU  0 instructions:   18000002 cycles:   14252433 heartbeat IPC: 1.26310 cumulative IPC: 1.26294 (Simulation time: 0 hr 0 min 45 sec) 
Heartbeat CPU  0 instructions:   19000000 cycles:   15044187 heartbeat IPC: 1.26302 cumulative IPC: 1.26295 (Simulation time: 0 hr 0 min 48 sec) 
Heartbeat CPU  0 instructions:   20000000 cycles:   15835595 heartbeat IPC: 1.26357 cumulative IPC: 1.26298 (Simulation time: 0 hr 0 min 50 sec) 
Heartbeat CPU  0 instructions:   21000000 cycles:   16627158 heartbeat IPC: 1.26332 cumulative IPC: 1.26299 (Simulation time: 0 hr 0 min 53 sec) 
Heartbeat CPU  0 instructions:   22000003 cycles:   17418895 heartbeat IPC: 1.26305 cumulative IPC: 1.26300 (Simulation time: 0 hr 0 min 55 sec) 
Heartbeat CPU  0 instructions:   23000000 cycles:   18210691 heartbeat IPC: 1.26295 cumulative IPC: 1.26299 (Simulation time: 0 hr 0 min 58 sec) 
Heartbeat CPU  0 instructions:   24000000 cycles:   19002483 heartbeat IPC: 1.26296 cumulative IPC: 1.26299 (Simulation time: 0 hr 1 min 0 sec) 
Heartbeat CPU  0 instructions:   25000001 cycles:   19794289 heartbeat IPC: 1.26294 cumulative IPC: 1.26299 (Simulation time: 0 hr 1 min 3 sec) 
Heartbeat CPU  0 instructions:   26000002 cycles:   20586113 heartbeat IPC: 1.26291 cumulative IPC: 1.26299 (Simulation time: 0 hr 1 min 5 sec) 
Heartbeat CPU  0 instructions:   27000001 cycles:   21377757 heartbeat IPC: 1.26319 cumulative IPC: 1.26300 (Simulation time: 0 hr 1 min 8 sec) 
Heartbeat CPU  0 instructions:   28000000 cycles:   22169600 heartbeat IPC: 1.26288 cumulative IPC: 1.26299 (Simulation time: 0 hr 1 min 10 sec) 
Heartbeat CPU  0 instructions:   29000001 cycles:   22961385 heartbeat IPC: 1.26297 cumulative IPC: 1.26299 (Simulation time: 0 hr 1 min 13 sec) 
Heartbeat CPU  0 instructions:   30000002 cycles:   23753052 heartbeat IPC: 1.26316 cumulative IPC: 1.26300 (Simulation time: 0 hr 1 min 15 sec) 
Heartbeat CPU  0 instructions:   31000001 cycles:   24544678 heartbeat IPC: 1.26322 cumulative IPC: 1.26300 (Simulation time: 0 hr 1 min 18 sec) 
Heartbeat CPU  0 instructions:   32000000 cycles:   25336113 heartbeat IPC: 1.26353 cumulative IPC: 1.26302 (Simulation time: 0 hr 1 min 21 sec) 
Heartbeat CPU  0 instructions:   33000001 cycles:   26127931 heartbeat IPC: 1.26292 cumulative IPC: 1.26302 (Simulation time: 0 hr 1 min 23 sec) 
Heartbeat CPU  0 instructions:   34000003 cycles:   26919701 heartbeat IPC: 1.26300 cumulative IPC: 1.26302 (Simulation time: 0 hr 1 min 26 sec) 
Heartbeat CPU  0 instructions:   35000001 cycles:   27711408 heartbeat IPC: 1.26309 cumulative IPC: 1.26302 (Simulation time: 0 hr 1 min 28 sec) 
Heartbeat CPU  0 instructions:   36000000 cycles:   28503252 heartbeat IPC: 1.26287 cumulative IPC: 1.26301 (Simulation time: 0 hr 1 min 31 sec) 
Heartbeat CPU  0 instructions:   37000000 cycles:   29295089 heartbeat IPC: 1.26289 cumulative IPC: 1.26301 (Simulation time: 0 hr 1 min 33 sec) 
Heartbeat CPU  0 instructions:   38000000 cycles:   30086791 heartbeat IPC: 1.26310 cumulative IPC: 1.26301 (Simulation time: 0 hr 1 min 36 sec) 
Heartbeat CPU  0 instructions:   39000001 cycles:   30878516 heartbeat IPC: 1.26307 cumulative IPC: 1.26301 (Simulation time: 0 hr 1 min 38 sec) 
Heartbeat CPU  0 instructions:   40000000 cycles:   31661244 heartbeat IPC: 1.27758 cumulative IPC: 1.26337 (Simulation time: 0 hr 1 min 41 sec) 
Heartbeat CPU  0 instructions:   41000001 cycles:   32434269 heartbeat IPC: 1.29362 cumulative IPC: 1.26410 (Simulation time: 0 hr 1 min 44 sec) 
Heartbeat CPU  0 instructions:   42000003 cycles:   33206996 heartbeat IPC: 1.29412 cumulative IPC: 1.26479 (Simulation time: 0 hr 1 min 46 sec) 
Heartbeat CPU  0 instructions:   43000001 cycles:   33982822 heartbeat IPC: 1.28895 cumulative IPC: 1.26535 (Simulation time: 0 hr 1 min 49 sec) 
Heartbeat CPU  0 instructions:   44000000 cycles:   34774302 heartbeat IPC: 1.26345 cumulative IPC: 1.26530 (Simulation time: 0 hr 1 min 51 sec) 
Heartbeat CPU  0 instructions:   45000001 cycles:   35565626 heartbeat IPC: 1.26371 cumulative IPC: 1.26527 (Simulation time: 0 hr 1 min 54 sec) 
Heartbeat CPU  0 instructions:   46000003 cycles:   36357216 heartbeat IPC: 1.26328 cumulative IPC: 1.26522 (Simulation time: 0 hr 1 min 57 sec) 
Heartbeat CPU  0 instructions:   47000001 cycles:   37148494 heartbeat IPC: 1.26378 cumulative IPC: 1.26519 (Simulation time: 0 hr 1 min 59 sec) 
Heartbeat CPU  0 instructions:   48000000 cycles:   37939905 heartbeat IPC: 1.26356 cumulative IPC: 1.26516 (Simulation time: 0 hr 2 min 2 sec) 
Heartbeat CPU  0 instructions:   49000001 cycles:   38731112 heartbeat IPC: 1.26389 cumulative IPC: 1.26513 (Simulation time: 0 hr 2 min 4 sec) 
Heartbeat CPU  0 instructions:   50000003 cycles:   39522243 heartbeat IPC: 1.26402 cumulative IPC: 1.26511 (Simulation time: 0 hr 2 min 7 sec) 
Heartbeat CPU  0 instructions:   51000001 cycles:   40313736 heartbeat IPC: 1.26343 cumulative IPC: 1.26508 (Simulation time: 0 hr 2 min 9 sec) 
Heartbeat CPU  0 instructions:   52000000 cycles:   41105135 heartbeat IPC: 1.26358 cumulative IPC: 1.26505 (Simulation time: 0 hr 2 min 12 sec) 
Heartbeat CPU  0 instructions:   53000003 cycles:   41896707 heartbeat IPC: 1.26331 cumulative IPC: 1.26502 (Simulation time: 0 hr 2 min 14 sec) 
Heartbeat CPU  0 instructions:   54000002 cycles:   42688174 heartbeat IPC: 1.26348 cumulative IPC: 1.26499 (Simulation time: 0 hr 2 min 17 sec) 
Heartbeat CPU  0 instructions:   55000001 cycles:   43479514 heartbeat IPC: 1.26368 cumulative IPC: 1.26496 (Simulation time: 0 hr 2 min 20 sec) 
Heartbeat CPU  0 instructions:   56000000 cycles:   44270727 heartbeat IPC: 1.26388 cumulative IPC: 1.26494 (Simulation time: 0 hr 2 min 22 sec) 
Heartbeat CPU  0 instructions:   57000000 cycles:   45062253 heartbeat IPC: 1.26338 cumulative IPC: 1.26492 (Simulation time: 0 hr 2 min 25 sec) 
Heartbeat CPU  0 instructions:   58000002 cycles:   45853584 heartbeat IPC: 1.26370 cumulative IPC: 1.26490 (Simulation time: 0 hr 2 min 27 sec) 
Heartbeat CPU  0 instructions:   59000000 cycles:   46645038 heartbeat IPC: 1.26349 cumulative IPC: 1.26487 (Simulation time: 0 hr 2 min 30 sec) 
Heartbeat CPU  0 instructions:   60000000 cycles:   47436327 heartbeat IPC: 1.26376 cumulative IPC: 1.26485 (Simulation time: 0 hr 2 min 32 sec) 
Heartbeat CPU  0 instructions:   61000000 cycles:   48227431 heartbeat IPC: 1.26406 cumulative IPC: 1.26484 (Simulation time: 0 hr 2 min 35 sec) 
Heartbeat CPU  0 instructions:   62000002 cycles:   49019033 heartbeat IPC: 1.26326 cumulative IPC: 1.26481 (Simulation time: 0 hr 2 min 37 sec) 
Heartbeat CPU  0 instructions:   63000000 cycles:   49810482 heartbeat IPC: 1.26350 cumulative IPC: 1.26479 (Simulation time: 0 hr 2 min 40 sec) 
Heartbeat CPU  0 instructions:   64000000 cycles:   50601823 heartbeat IPC: 1.26368 cumulative IPC: 1.26478 (Simulation time: 0 hr 2 min 42 sec) 
Heartbeat CPU  0 instructions:   65000000 cycles:   51393403 heartbeat IPC: 1.26330 cumulative IPC: 1.26475 (Simulation time: 0 hr 2 min 45 sec) 
Heartbeat CPU  0 instructions:   66000003 cycles:   52184689 heartbeat IPC: 1.26377 cumulative IPC: 1.26474 (Simulation time: 0 hr 2 min 48 sec) 
Heartbeat CPU  0 instructions:   67000000 cycles:   52976072 heartbeat IPC: 1.26361 cumulative IPC: 1.26472 (Simulation time: 0 hr 2 min 50 sec) 
Heartbeat CPU  0 instructions:   68000000 cycles:   53767298 heartbeat IPC: 1.26386 cumulative IPC: 1.26471 (Simulation time: 0 hr 2 min 53 sec) 
Heartbeat CPU  0 instructions:   69000001 cycles:   54558702 heartbeat IPC: 1.26358 cumulative IPC: 1.26469 (Simulation time: 0 hr 2 min 55 sec) 
Heartbeat CPU  0 instructions:   70000002 cycles:   55349953 heartbeat IPC: 1.26382 cumulative IPC: 1.26468 (Simulation time: 0 hr 2 min 58 sec) 
Heartbeat CPU  0 instructions:   71000001 cycles:   56141330 heartbeat IPC: 1.26362 cumulative IPC: 1.26467 (Simulation time: 0 hr 3 min 0 sec) 
Heartbeat CPU  0 instructions:   72000000 cycles:   56932458 heartbeat IPC: 1.26402 cumulative IPC: 1.26466 (Simulation time: 0 hr 3 min 3 sec) 
Heartbeat CPU  0 instructions:   73000003 cycles:   57724187 heartbeat IPC: 1.26306 cumulative IPC: 1.26463 (Simulation time: 0 hr 3 min 5 sec) 
Heartbeat CPU  0 instructions:   74000003 cycles:   58515428 heartbeat IPC: 1.26384 cumulative IPC: 1.26462 (Simulation time: 0 hr 3 min 8 sec) 
Heartbeat CPU  0 instructions:   75000001 cycles:   59306800 heartbeat IPC: 1.26363 cumulative IPC: 1.26461 (Simulation time: 0 hr 3 min 11 sec) 
Heartbeat CPU  0 instructions:   76000000 cycles:   60098386 heartbeat IPC: 1.26329 cumulative IPC: 1.26459 (Simulation time: 0 hr 3 min 13 sec) 
Heartbeat CPU  0 instructions:   77000002 cycles:   60889630 heartbeat IPC: 1.26384 cumulative IPC: 1.26458 (Simulation time: 0 hr 3 min 16 sec) 
Heartbeat CPU  0 instructions:   78000001 cycles:   61681046 heartbeat IPC: 1.26356 cumulative IPC: 1.26457 (Simulation time: 0 hr 3 min 18 sec) 
Heartbeat CPU  0 instructions:   79000000 cycles:   62472315 heartbeat IPC: 1.26379 cumulative IPC: 1.26456 (Simulation time: 0 hr 3 min 21 sec) 
Heartbeat CPU  0 instructions:   80000000 cycles:   63263720 heartbeat IPC: 1.26358 cumulative IPC: 1.26455 (Simulation time: 0 hr 3 min 23 sec) 
Heartbeat CPU  0 instructions:   81000000 cycles:   64055018 heartbeat IPC: 1.26375 cumulative IPC: 1.26454 (Simulation time: 0 hr 3 min 26 sec) 
Heartbeat CPU  0 instructions:   82000002 cycles:   64846271 heartbeat IPC: 1.26382 cumulative IPC: 1.26453 (Simulation time: 0 hr 3 min 28 sec) 
Heartbeat CPU  0 instructions:   83000000 cycles:   65637599 heartbeat IPC: 1.26370 cumulative IPC: 1.26452 (Simulation time: 0 hr 3 min 31 sec) 
Heartbeat CPU  0 instructions:   84000000 cycles:   66428941 heartbeat IPC: 1.26368 cumulative IPC: 1.26451 (Simulation time: 0 hr 3 min 34 sec) 
Heartbeat CPU  0 instructions:   85000000 cycles:   67220322 heartbeat IPC: 1.26361 cumulative IPC: 1.26450 (Simulation time: 0 hr 3 min 36 sec) 
Heartbeat CPU  0 instructions:   86000002 cycles:   68011582 heartbeat IPC: 1.26381 cumulative IPC: 1.26449 (Simulation time: 0 hr 3 min 39 sec) 
Heartbeat CPU  0 instructions:   87000000 cycles:   68802915 heartbeat IPC: 1.26369 cumulative IPC: 1.26448 (Simulation time: 0 hr 3 min 41 sec) 
Heartbeat CPU  0 instructions:   88000000 cycles:   69594113 heartbeat IPC: 1.26391 cumulative IPC: 1.26447 (Simulation time: 0 hr 3 min 44 sec) 
Heartbeat CPU  0 instructions:   89000000 cycles:   70385566 heartbeat IPC: 1.26350 cumulative IPC: 1.26446 (Simulation time: 0 hr 3 min 46 sec) 
Heartbeat CPU  0 instructions:   90000003 cycles:   71176818 heartbeat IPC: 1.26382 cumulative IPC: 1.26446 (Simulation time: 0 hr 3 min 49 sec) 
Heartbeat CPU  0 instructions:   91000000 cycles:   71968023 heartbeat IPC: 1.26389 cumulative IPC: 1.26445 (Simulation time: 0 hr 3 min 51 sec) 
Heartbeat CPU  0 instructions:   92000000 cycles:   72759355 heartbeat IPC: 1.26369 cumulative IPC: 1.26444 (Simulation time: 0 hr 3 min 54 sec) 
Heartbeat CPU  0 instructions:   93000001 cycles:   73550553 heartbeat IPC: 1.26391 cumulative IPC: 1.26444 (Simulation time: 0 hr 3 min 57 sec) 
Heartbeat CPU  0 instructions:   94000001 cycles:   74342011 heartbeat IPC: 1.26349 cumulative IPC: 1.26443 (Simulation time: 0 hr 3 min 59 sec) 
Heartbeat CPU  0 instructions:   95000000 cycles:   75133224 heartbeat IPC: 1.26388 cumulative IPC: 1.26442 (Simulation time: 0 hr 4 min 2 sec) 
Heartbeat CPU  0 instructions:   96000000 cycles:   75924483 heartbeat IPC: 1.26381 cumulative IPC: 1.26441 (Simulation time: 0 hr 4 min 4 sec) 
Heartbeat CPU  0 instructions:   97000003 cycles:   76715975 heartbeat IPC: 1.26344 cumulative IPC: 1.26440 (Simulation time: 0 hr 4 min 7 sec) 
Heartbeat CPU  0 instructions:   98000003 cycles:   77507253 heartbeat IPC: 1.26378 cumulative IPC: 1.26440 (Simulation time: 0 hr 4 min 9 sec) 
Heartbeat CPU  0 instructions:   99000003 cycles:   78298504 heartbeat IPC: 1.26382 cumulative IPC: 1.26439 (Simulation time: 0 hr 4 min 12 sec) 
Heartbeat CPU  0 instructions:  100000000 cycles:   79089769 heartbeat IPC: 1.26380 cumulative IPC: 1.26439 (Simulation time: 0 hr 4 min 14 sec) 

Warmup complete CPU  0 instructions:  100000001 cycles:   79089770 (Simulation time: 0 hr 4 min 14 sec) 

Heartbeat CPU  0 instructions:  101000001 cycles:   80918453 heartbeat IPC: 0.54684 cumulative IPC: 0.54684 (Simulation time: 0 hr 4 min 18 sec) 
Heartbeat CPU  0 instructions:  102000002 cycles:   82749313 heartbeat IPC: 0.54619 cumulative IPC: 0.54652 (Simulation time: 0 hr 4 min 21 sec) 
Heartbeat CPU  0 instructions:  103000003 cycles:   84581008 heartbeat IPC: 0.54594 cumulative IPC: 0.54633 (Simulation time: 0 hr 4 min 24 sec) 
Heartbeat CPU  0 instructions:  104000000 cycles:   86406314 heartbeat IPC: 0.54785 cumulative IPC: 0.54671 (Simulation time: 0 hr 4 min 27 sec) 
Heartbeat CPU  0 instructions:  105000001 cycles:   88239659 heartbeat IPC: 0.54545 cumulative IPC: 0.54645 (Simulation time: 0 hr 4 min 30 sec) 
Heartbeat CPU  0 instructions:  106000002 cycles:   90071911 heartbeat IPC: 0.54578 cumulative IPC: 0.54634 (Simulation time: 0 hr 4 min 34 sec) 
Heartbeat CPU  0 instructions:  107000000 cycles:   91897994 heartbeat IPC: 0.54762 cumulative IPC: 0.54652 (Simulation time: 0 hr 4 min 37 sec) 
Heartbeat CPU  0 instructions:  108000000 cycles:   93727480 heartbeat IPC: 0.54660 cumulative IPC: 0.54653 (Simulation time: 0 hr 4 min 40 sec) 
Heartbeat CPU  0 instructions:  109000000 cycles:   95557634 heartbeat IPC: 0.54640 cumulative IPC: 0.54652 (Simulation time: 0 hr 4 min 43 sec) 
Heartbeat CPU  0 instructions:  110000002 cycles:   97379711 heartbeat IPC: 0.54883 cumulative IPC: 0.54675 (Simulation time: 0 hr 4 min 46 sec) 
Heartbeat CPU  0 instructions:  111000001 cycles:   99201291 heartbeat IPC: 0.54897 cumulative IPC: 0.54695 (Simulation time: 0 hr 4 min 50 sec) 
Heartbeat CPU  0 instructions:  112000000 cycles:  101023878 heartbeat IPC: 0.54867 cumulative IPC: 0.54709 (Simulation time: 0 hr 4 min 53 sec) 
Heartbeat CPU  0 instructions:  113000000 cycles:  102857987 heartbeat IPC: 0.54522 cumulative IPC: 0.54695 (Simulation time: 0 hr 4 min 56 sec) 
Heartbeat CPU  0 instructions:  114000002 cycles:  104691102 heartbeat IPC: 0.54552 cumulative IPC: 0.54685 (Simulation time: 0 hr 4 min 59 sec) 
Heartbeat CPU  0 instructions:  115000002 cycles:  106515679 heartbeat IPC: 0.54807 cumulative IPC: 0.54693 (Simulation time: 0 hr 5 min 2 sec) 
Heartbeat CPU  0 instructions:  116000000 cycles:  108345670 heartbeat IPC: 0.54645 cumulative IPC: 0.54690 (Simulation time: 0 hr 5 min 6 sec) 
Heartbeat CPU  0 instructions:  117000001 cycles:  110175999 heartbeat IPC: 0.54635 cumulative IPC: 0.54687 (Simulation time: 0 hr 5 min 9 sec) 
Heartbeat CPU  0 instructions:  118000000 cycles:  112002820 heartbeat IPC: 0.54740 cumulative IPC: 0.54690 (Simulation time: 0 hr 5 min 12 sec) 
Heartbeat CPU  0 instructions:  119000000 cycles:  113831260 heartbeat IPC: 0.54691 cumulative IPC: 0.54690 (Simulation time: 0 hr 5 min 15 sec) 
Heartbeat CPU  0 instructions:  120000000 cycles:  115653671 heartbeat IPC: 0.54872 cumulative IPC: 0.54699 (Simulation time: 0 hr 5 min 18 sec) 
Heartbeat CPU  0 instructions:  121000003 cycles:  117482047 heartbeat IPC: 0.54694 cumulative IPC: 0.54699 (Simulation time: 0 hr 5 min 22 sec) 
Heartbeat CPU  0 instructions:  122000001 cycles:  119306603 heartbeat IPC: 0.54808 cumulative IPC: 0.54703 (Simulation time: 0 hr 5 min 25 sec) 
Heartbeat CPU  0 instructions:  123000000 cycles:  121128499 heartbeat IPC: 0.54888 cumulative IPC: 0.54711 (Simulation time: 0 hr 5 min 28 sec) 
Heartbeat CPU  0 instructions:  124000000 cycles:  122961617 heartbeat IPC: 0.54552 cumulative IPC: 0.54705 (Simulation time: 0 hr 5 min 31 sec) 
Heartbeat CPU  0 instructions:  125000001 cycles:  124784422 heartbeat IPC: 0.54861 cumulative IPC: 0.54711 (Simulation time: 0 hr 5 min 34 sec) 
Heartbeat CPU  0 instructions:  126000001 cycles:  126619783 heartbeat IPC: 0.54485 cumulative IPC: 0.54702 (Simulation time: 0 hr 5 min 38 sec) 
Heartbeat CPU  0 instructions:  127000003 cycles:  128453813 heartbeat IPC: 0.54525 cumulative IPC: 0.54696 (Simulation time: 0 hr 5 min 41 sec) 
Heartbeat CPU  0 instructions:  128000000 cycles:  130282838 heartbeat IPC: 0.54674 cumulative IPC: 0.54695 (Simulation time: 0 hr 5 min 44 sec) 
Heartbeat CPU  0 instructions:  129000003 cycles:  132111016 heartbeat IPC: 0.54699 cumulative IPC: 0.54695 (Simulation time: 0 hr 5 min 47 sec) 
Heartbeat CPU  0 instructions:  130000001 cycles:  133942867 heartbeat IPC: 0.54589 cumulative IPC: 0.54692 (Simulation time: 0 hr 5 min 50 sec) 
Heartbeat CPU  0 instructions:  131000000 cycles:  135763787 heartbeat IPC: 0.54917 cumulative IPC: 0.54699 (Simulation time: 0 hr 5 min 54 sec) 
Heartbeat CPU  0 instructions:  132000000 cycles:  137591660 heartbeat IPC: 0.54708 cumulative IPC: 0.54699 (Simulation time: 0 hr 5 min 57 sec) 
Heartbeat CPU  0 instructions:  133000000 cycles:  139418122 heartbeat IPC: 0.54751 cumulative IPC: 0.54701 (Simulation time: 0 hr 6 min 0 sec) 
Heartbeat CPU  0 instructions:  134000002 cycles:  141238740 heartbeat IPC: 0.54927 cumulative IPC: 0.54707 (Simulation time: 0 hr 6 min 3 sec) 
Heartbeat CPU  0 instructions:  135000003 cycles:  143061728 heartbeat IPC: 0.54855 cumulative IPC: 0.54711 (Simulation time: 0 hr 6 min 6 sec) 
Heartbeat CPU  0 instructions:  136000000 cycles:  144889062 heartbeat IPC: 0.54724 cumulative IPC: 0.54712 (Simulation time: 0 hr 6 min 10 sec) 
Heartbeat CPU  0 instructions:  137000000 cycles:  146727747 heartbeat IPC: 0.54387 cumulative IPC: 0.54703 (Simulation time: 0 hr 6 min 13 sec) 
Heartbeat CPU  0 instructions:  138000000 cycles:  148558521 heartbeat IPC: 0.54622 cumulative IPC: 0.54701 (Simulation time: 0 hr 6 min 16 sec) 
Heartbeat CPU  0 instructions:  139000002 cycles:  150381574 heartbeat IPC: 0.54853 cumulative IPC: 0.54705 (Simulation time: 0 hr 6 min 19 sec) 
Heartbeat CPU  0 instructions:  140000000 cycles:  152213114 heartbeat IPC: 0.54599 cumulative IPC: 0.54702 (Simulation time: 0 hr 6 min 22 sec) 
Heartbeat CPU  0 instructions:  141000002 cycles:  154046090 heartbeat IPC: 0.54556 cumulative IPC: 0.54699 (Simulation time: 0 hr 6 min 26 sec) 
Heartbeat CPU  0 instructions:  142000000 cycles:  155869293 heartbeat IPC: 0.54848 cumulative IPC: 0.54702 (Simulation time: 0 hr 6 min 29 sec) 
Heartbeat CPU  0 instructions:  143000003 cycles:  157701793 heartbeat IPC: 0.54570 cumulative IPC: 0.54699 (Simulation time: 0 hr 6 min 32 sec) 
Heartbeat CPU  0 instructions:  144000000 cycles:  159531489 heartbeat IPC: 0.54654 cumulative IPC: 0.54698 (Simulation time: 0 hr 6 min 35 sec) 
Heartbeat CPU  0 instructions:  145000003 cycles:  161359849 heartbeat IPC: 0.54694 cumulative IPC: 0.54698 (Simulation time: 0 hr 6 min 38 sec) 
Heartbeat CPU  0 instructions:  146000001 cycles:  163185737 heartbeat IPC: 0.54768 cumulative IPC: 0.54699 (Simulation time: 0 hr 6 min 42 sec) 
Heartbeat CPU  0 instructions:  147000003 cycles:  165001500 heartbeat IPC: 0.55073 cumulative IPC: 0.54707 (Simulation time: 0 hr 6 min 45 sec) 
Heartbeat CPU  0 instructions:  148000000 cycles:  166812659 heartbeat IPC: 0.55213 cumulative IPC: 0.54718 (Simulation time: 0 hr 6 min 48 sec) 
Heartbeat CPU  0 instructions:  149000003 cycles:  168619784 heartbeat IPC: 0.55337 cumulative IPC: 0.54730 (Simulation time: 0 hr 6 min 51 sec) 
Heartbeat CPU  0 instructions:  150000001 cycles:  170431419 heartbeat IPC: 0.55199 cumulative IPC: 0.54740 (Simulation time: 0 hr 6 min 54 sec) 
Heartbeat CPU  0 instructions:  151000003 cycles:  172237308 heartbeat IPC: 0.55374 cumulative IPC: 0.54752 (Simulation time: 0 hr 6 min 58 sec) 
Heartbeat CPU  0 instructions:  152000000 cycles:  174043198 heartbeat IPC: 0.55374 cumulative IPC: 0.54764 (Simulation time: 0 hr 7 min 1 sec) 
Heartbeat CPU  0 instructions:  153000003 cycles:  175843199 heartbeat IPC: 0.55556 cumulative IPC: 0.54778 (Simulation time: 0 hr 7 min 4 sec) 
Heartbeat CPU  0 instructions:  154000001 cycles:  177650209 heartbeat IPC: 0.55340 cumulative IPC: 0.54789 (Simulation time: 0 hr 7 min 7 sec) 
Heartbeat CPU  0 instructions:  155000001 cycles:  179451442 heartbeat IPC: 0.55518 cumulative IPC: 0.54802 (Simulation time: 0 hr 7 min 10 sec) 
Heartbeat CPU  0 instructions:  156000000 cycles:  181260268 heartbeat IPC: 0.55284 cumulative IPC: 0.54810 (Simulation time: 0 hr 7 min 14 sec) 
Heartbeat CPU  0 instructions:  157000001 cycles:  183066524 heartbeat IPC: 0.55363 cumulative IPC: 0.54820 (Simulation time: 0 hr 7 min 17 sec) 
Heartbeat CPU  0 instructions:  158000003 cycles:  184874040 heartbeat IPC: 0.55325 cumulative IPC: 0.54829 (Simulation time: 0 hr 7 min 20 sec) 
Heartbeat CPU  0 instructions:  159000003 cycles:  186686494 heartbeat IPC: 0.55174 cumulative IPC: 0.54834 (Simulation time: 0 hr 7 min 23 sec) 
Heartbeat CPU  0 instructions:  160000000 cycles:  188498821 heartbeat IPC: 0.55178 cumulative IPC: 0.54840 (Simulation time: 0 hr 7 min 26 sec) 
Heartbeat CPU  0 instructions:  161000002 cycles:  190301885 heartbeat IPC: 0.55461 cumulative IPC: 0.54850 (Simulation time: 0 hr 7 min 30 sec) 
Heartbeat CPU  0 instructions:  162000000 cycles:  192108044 heartbeat IPC: 0.55366 cumulative IPC: 0.54858 (Simulation time: 0 hr 7 min 33 sec) 
Heartbeat CPU  0 instructions:  163000000 cycles:  193906556 heartbeat IPC: 0.55602 cumulative IPC: 0.54870 (Simulation time: 0 hr 7 min 36 sec) 
Heartbeat CPU  0 instructions:  164000000 cycles:  195710366 heartbeat IPC: 0.55438 cumulative IPC: 0.54879 (Simulation time: 0 hr 7 min 39 sec) 
Heartbeat CPU  0 instructions:  165000002 cycles:  197519053 heartbeat IPC: 0.55289 cumulative IPC: 0.54885 (Simulation time: 0 hr 7 min 42 sec) 
Heartbeat CPU  0 instructions:  166000003 cycles:  199327635 heartbeat IPC: 0.55292 cumulative IPC: 0.54891 (Simulation time: 0 hr 7 min 46 sec) 
Heartbeat CPU  0 instructions:  167000002 cycles:  201133484 heartbeat IPC: 0.55376 cumulative IPC: 0.54898 (Simulation time: 0 hr 7 min 49 sec) 
Heartbeat CPU  0 instructions:  168000000 cycles:  202940981 heartbeat IPC: 0.55325 cumulative IPC: 0.54905 (Simulation time: 0 hr 7 min 52 sec) 
Heartbeat CPU  0 instructions:  169000001 cycles:  204756429 heartbeat IPC: 0.55083 cumulative IPC: 0.54907 (Simulation time: 0 hr 7 min 55 sec) 
Heartbeat CPU  0 instructions:  170000000 cycles:  206566794 heartbeat IPC: 0.55237 cumulative IPC: 0.54912 (Simulation time: 0 hr 7 min 58 sec) 
Heartbeat CPU  0 instructions:  171000003 cycles:  208380068 heartbeat IPC: 0.55149 cumulative IPC: 0.54915 (Simulation time: 0 hr 8 min 2 sec) 
Heartbeat CPU  0 instructions:  172000000 cycles:  210185906 heartbeat IPC: 0.55376 cumulative IPC: 0.54922 (Simulation time: 0 hr 8 min 5 sec) 
Heartbeat CPU  0 instructions:  173000000 cycles:  211996092 heartbeat IPC: 0.55243 cumulative IPC: 0.54926 (Simulation time: 0 hr 8 min 8 sec) 
Heartbeat CPU  0 instructions:  174000001 cycles:  213801357 heartbeat IPC: 0.55394 cumulative IPC: 0.54932 (Simulation time: 0 hr 8 min 11 sec) 
Heartbeat CPU  0 instructions:  175000003 cycles:  215600180 heartbeat IPC: 0.55592 cumulative IPC: 0.54941 (Simulation time: 0 hr 8 min 14 sec) 
Heartbeat CPU  0 instructions:  176000000 cycles:  217411706 heartbeat IPC: 0.55202 cumulative IPC: 0.54944 (Simulation time: 0 hr 8 min 18 sec) 
Heartbeat CPU  0 instructions:  177000003 cycles:  219222877 heartbeat IPC: 0.55213 cumulative IPC: 0.54948 (Simulation time: 0 hr 8 min 21 sec) 
Heartbeat CPU  0 instructions:  178000001 cycles:  221034053 heartbeat IPC: 0.55213 cumulative IPC: 0.54951 (Simulation time: 0 hr 8 min 24 sec) 
Heartbeat CPU  0 instructions:  179000000 cycles:  222842641 heartbeat IPC: 0.55292 cumulative IPC: 0.54955 (Simulation time: 0 hr 8 min 27 sec) 
Heartbeat CPU  0 instructions:  180000000 cycles:  224655507 heartbeat IPC: 0.55161 cumulative IPC: 0.54958 (Simulation time: 0 hr 8 min 30 sec) 
Heartbeat CPU  0 instructions:  181000000 cycles:  226459039 heartbeat IPC: 0.55447 cumulative IPC: 0.54964 (Simulation time: 0 hr 8 min 34 sec) 
Heartbeat CPU  0 instructions:  182000001 cycles:  228263701 heartbeat IPC: 0.55412 cumulative IPC: 0.54969 (Simulation time: 0 hr 8 min 37 sec) 
Heartbeat CPU  0 instructions:  183000002 cycles:  230078929 heartbeat IPC: 0.55090 cumulative IPC: 0.54971 (Simulation time: 0 hr 8 min 40 sec) 
Heartbeat CPU  0 instructions:  184000000 cycles:  231879281 heartbeat IPC: 0.55545 cumulative IPC: 0.54978 (Simulation time: 0 hr 8 min 43 sec) 
Heartbeat CPU  0 instructions:  185000001 cycles:  233684898 heartbeat IPC: 0.55383 cumulative IPC: 0.54982 (Simulation time: 0 hr 8 min 46 sec) 
Heartbeat CPU  0 instructions:  186000000 cycles:  235490100 heartbeat IPC: 0.55395 cumulative IPC: 0.54987 (Simulation time: 0 hr 8 min 50 sec) 
Heartbeat CPU  0 instructions:  187000000 cycles:  237512246 heartbeat IPC: 0.49452 cumulative IPC: 0.54916 (Simulation time: 0 hr 8 min 53 sec) 
Heartbeat CPU  0 instructions:  188000000 cycles:  239157717 heartbeat IPC: 0.60773 cumulative IPC: 0.54977 (Simulation time: 0 hr 8 min 56 sec) 
Heartbeat CPU  0 instructions:  189000002 cycles:  240753129 heartbeat IPC: 0.62680 cumulative IPC: 0.55053 (Simulation time: 0 hr 8 min 59 sec) 
Heartbeat CPU  0 instructions:  190000003 cycles:  242390046 heartbeat IPC: 0.61091 cumulative IPC: 0.55113 (Simulation time: 0 hr 9 min 2 sec) 
Heartbeat CPU  0 instructions:  191000000 cycles:  244009920 heartbeat IPC: 0.61733 cumulative IPC: 0.55178 (Simulation time: 0 hr 9 min 5 sec) 
Heartbeat CPU  0 instructions:  192000000 cycles:  245626217 heartbeat IPC: 0.61870 cumulative IPC: 0.55243 (Simulation time: 0 hr 9 min 8 sec) 
Heartbeat CPU  0 instructions:  193000001 cycles:  247269112 heartbeat IPC: 0.60868 cumulative IPC: 0.55298 (Simulation time: 0 hr 9 min 11 sec) 
Heartbeat CPU  0 instructions:  194000000 cycles:  248904513 heartbeat IPC: 0.61147 cumulative IPC: 0.55354 (Simulation time: 0 hr 9 min 14 sec) 
Heartbeat CPU  0 instructions:  195000000 cycles:  250545544 heartbeat IPC: 0.60937 cumulative IPC: 0.55408 (Simulation time: 0 hr 9 min 17 sec) 
Heartbeat CPU  0 instructions:  196000000 cycles:  252165647 heartbeat IPC: 0.61724 cumulative IPC: 0.55467 (Simulation time: 0 hr 9 min 21 sec) 
Heartbeat CPU  0 instructions:  197000000 cycles:  253732911 heartbeat IPC: 0.63805 cumulative IPC: 0.55542 (Simulation time: 0 hr 9 min 24 sec) 
Heartbeat CPU  0 instructions:  198000003 cycles:  255342449 heartbeat IPC: 0.62130 cumulative IPC: 0.55602 (Simulation time: 0 hr 9 min 27 sec) 
Heartbeat CPU  0 instructions:  199000001 cycles:  256982900 heartbeat IPC: 0.60959 cumulative IPC: 0.55651 (Simulation time: 0 hr 9 min 30 sec) 
Heartbeat CPU  0 instructions:  200000000 cycles:  258586586 heartbeat IPC: 0.62356 cumulative IPC: 0.55711 (Simulation time: 0 hr 9 min 33 sec) 
Heartbeat CPU  0 instructions:  201000003 cycles:  260208961 heartbeat IPC: 0.61638 cumulative IPC: 0.55764 (Simulation time: 0 hr 9 min 36 sec) 
Heartbeat CPU  0 instructions:  202000000 cycles:  261850334 heartbeat IPC: 0.60924 cumulative IPC: 0.55811 (Simulation time: 0 hr 9 min 39 sec) 
Heartbeat CPU  0 instructions:  203000001 cycles:  263486005 heartbeat IPC: 0.61137 cumulative IPC: 0.55858 (Simulation time: 0 hr 9 min 42 sec) 
Heartbeat CPU  0 instructions:  204000000 cycles:  265112000 heartbeat IPC: 0.61501 cumulative IPC: 0.55907 (Simulation time: 0 hr 9 min 45 sec) 
Heartbeat CPU  0 instructions:  205000000 cycles:  266758228 heartbeat IPC: 0.60745 cumulative IPC: 0.55950 (Simulation time: 0 hr 9 min 48 sec) 
Heartbeat CPU  0 instructions:  206000000 cycles:  268351493 heartbeat IPC: 0.62764 cumulative IPC: 0.56007 (Simulation time: 0 hr 9 min 51 sec) 
Heartbeat CPU  0 instructions:  207000000 cycles:  269979917 heartbeat IPC: 0.61409 cumulative IPC: 0.56053 (Simulation time: 0 hr 9 min 54 sec) 
Heartbeat CPU  0 instructions:  208000000 cycles:  271622353 heartbeat IPC: 0.60885 cumulative IPC: 0.56094 (Simulation time: 0 hr 9 min 58 sec) 
Heartbeat CPU  0 instructions:  209000003 cycles:  273232918 heartbeat IPC: 0.62090 cumulative IPC: 0.56144 (Simulation time: 0 hr 10 min 1 sec) 
Heartbeat CPU  0 instructions:  210000000 cycles:  274884046 heartbeat IPC: 0.60564 cumulative IPC: 0.56181 (Simulation time: 0 hr 10 min 4 sec) 
Heartbeat CPU  0 instructions:  211000003 cycles:  276506213 heartbeat IPC: 0.61646 cumulative IPC: 0.56226 (Simulation time: 0 hr 10 min 7 sec) 
Heartbeat CPU  0 instructions:  212000000 cycles:  278140321 heartbeat IPC: 0.61195 cumulative IPC: 0.56267 (Simulation time: 0 hr 10 min 10 sec) 
Heartbeat CPU  0 instructions:  213000003 cycles:  279775041 heartbeat IPC: 0.61173 cumulative IPC: 0.56307 (Simulation time: 0 hr 10 min 13 sec) 
Heartbeat CPU  0 instructions:  214000000 cycles:  281413663 heartbeat IPC: 0.61027 cumulative IPC: 0.56345 (Simulation time: 0 hr 10 min 16 sec) 
Heartbeat CPU  0 instructions:  215000002 cycles:  283033386 heartbeat IPC: 0.61739 cumulative IPC: 0.56388 (Simulation time: 0 hr 10 min 19 sec) 
Heartbeat CPU  0 instructions:  216000000 cycles:  284655305 heartbeat IPC: 0.61655 cumulative IPC: 0.56430 (Simulation time: 0 hr 10 min 22 sec) 
Heartbeat CPU  0 instructions:  217000001 cycles:  286285511 heartbeat IPC: 0.61342 cumulative IPC: 0.56468 (Simulation time: 0 hr 10 min 25 sec) 
Heartbeat CPU  0 instructions:  218000000 cycles:  287894123 heartbeat IPC: 0.62165 cumulative IPC: 0.56512 (Simulation time: 0 hr 10 min 29 sec) 
Heartbeat CPU  0 instructions:  219000000 cycles:  289535821 heartbeat IPC: 0.60913 cumulative IPC: 0.56547 (Simulation time: 0 hr 10 min 32 sec) 
Heartbeat CPU  0 instructions:  220000000 cycles:  291168446 heartbeat IPC: 0.61251 cumulative IPC: 0.56583 (Simulation time: 0 hr 10 min 35 sec) 
Heartbeat CPU  0 instructions:  221000000 cycles:  292793943 heartbeat IPC: 0.61520 cumulative IPC: 0.56620 (Simulation time: 0 hr 10 min 38 sec) 
Heartbeat CPU  0 instructions:  222000000 cycles:  294413317 heartbeat IPC: 0.61752 cumulative IPC: 0.56659 (Simulation time: 0 hr 10 min 41 sec) 
Heartbeat CPU  0 instructions:  223000003 cycles:  296019478 heartbeat IPC: 0.62260 cumulative IPC: 0.56700 (Simulation time: 0 hr 10 min 44 sec) 
Heartbeat CPU  0 instructions:  224000000 cycles:  297666751 heartbeat IPC: 0.60706 cumulative IPC: 0.56731 (Simulation time: 0 hr 10 min 47 sec) 
Heartbeat CPU  0 instructions:  225000001 cycles:  299295631 heartbeat IPC: 0.61392 cumulative IPC: 0.56765 (Simulation time: 0 hr 10 min 50 sec) 
Heartbeat CPU  0 instructions:  226000002 cycles:  300916716 heartbeat IPC: 0.61687 cumulative IPC: 0.56801 (Simulation time: 0 hr 10 min 53 sec) 
Heartbeat CPU  0 instructions:  227000003 cycles:  302536642 heartbeat IPC: 0.61731 cumulative IPC: 0.56837 (Simulation time: 0 hr 10 min 56 sec) 
Heartbeat CPU  0 instructions:  228000000 cycles:  304160652 heartbeat IPC: 0.61576 cumulative IPC: 0.56871 (Simulation time: 0 hr 10 min 59 sec) 
Heartbeat CPU  0 instructions:  229000000 cycles:  305769566 heartbeat IPC: 0.62154 cumulative IPC: 0.56908 (Simulation time: 0 hr 11 min 3 sec) 
Heartbeat CPU  0 instructions:  230000003 cycles:  307385289 heartbeat IPC: 0.61892 cumulative IPC: 0.56944 (Simulation time: 0 hr 11 min 6 sec) 
Heartbeat CPU  0 instructions:  231000000 cycles:  309001688 heartbeat IPC: 0.61866 cumulative IPC: 0.56978 (Simulation time: 0 hr 11 min 9 sec) 
Heartbeat CPU  0 instructions:  232000000 cycles:  310606202 heartbeat IPC: 0.62324 cumulative IPC: 0.57015 (Simulation time: 0 hr 11 min 12 sec) 
Heartbeat CPU  0 instructions:  233000003 cycles:  312249547 heartbeat IPC: 0.60852 cumulative IPC: 0.57042 (Simulation time: 0 hr 11 min 15 sec) 
Heartbeat CPU  0 instructions:  234000002 cycles:  313842337 heartbeat IPC: 0.62783 cumulative IPC: 0.57081 (Simulation time: 0 hr 11 min 18 sec) 
Heartbeat CPU  0 instructions:  235000001 cycles:  315451522 heartbeat IPC: 0.62143 cumulative IPC: 0.57116 (Simulation time: 0 hr 11 min 21 sec) 
Heartbeat CPU  0 instructions:  236000000 cycles:  317090409 heartbeat IPC: 0.61017 cumulative IPC: 0.57143 (Simulation time: 0 hr 11 min 24 sec) 
Heartbeat CPU  0 instructions:  237000002 cycles:  318688744 heartbeat IPC: 0.62565 cumulative IPC: 0.57179 (Simulation time: 0 hr 11 min 27 sec) 
Heartbeat CPU  0 instructions:  238000000 cycles:  320349913 heartbeat IPC: 0.60198 cumulative IPC: 0.57200 (Simulation time: 0 hr 11 min 30 sec) 
Heartbeat CPU  0 instructions:  239000000 cycles:  322006131 heartbeat IPC: 0.60379 cumulative IPC: 0.57221 (Simulation time: 0 hr 11 min 33 sec) 
Heartbeat CPU  0 instructions:  240000000 cycles:  323599090 heartbeat IPC: 0.62776 cumulative IPC: 0.57258 (Simulation time: 0 hr 11 min 37 sec) 
Heartbeat CPU  0 instructions:  241000002 cycles:  325211797 heartbeat IPC: 0.62008 cumulative IPC: 0.57289 (Simulation time: 0 hr 11 min 40 sec) 
Heartbeat CPU  0 instructions:  242000000 cycles:  326844690 heartbeat IPC: 0.61241 cumulative IPC: 0.57315 (Simulation time: 0 hr 11 min 43 sec) 
Heartbeat CPU  0 instructions:  243000003 cycles:  328421200 heartbeat IPC: 0.63431 cumulative IPC: 0.57353 (Simulation time: 0 hr 11 min 46 sec) 
Heartbeat CPU  0 instructions:  244000000 cycles:  330028844 heartbeat IPC: 0.62203 cumulative IPC: 0.57384 (Simulation time: 0 hr 11 min 49 sec) 
Heartbeat CPU  0 instructions:  245000002 cycles:  331628547 heartbeat IPC: 0.62512 cumulative IPC: 0.57417 (Simulation time: 0 hr 11 min 52 sec) 
Heartbeat CPU  0 instructions:  246000003 cycles:  333236185 heartbeat IPC: 0.62203 cumulative IPC: 0.57447 (Simulation time: 0 hr 11 min 55 sec) 
Heartbeat CPU  0 instructions:  247000002 cycles:  334832243 heartbeat IPC: 0.62654 cumulative IPC: 0.57480 (Simulation time: 0 hr 11 min 58 sec) 
Heartbeat CPU  0 instructions:  248000000 cycles:  336452720 heartbeat IPC: 0.61710 cumulative IPC: 0.57506 (Simulation time: 0 hr 12 min 1 sec) 
Heartbeat CPU  0 instructions:  249000002 cycles:  338084742 heartbeat IPC: 0.61274 cumulative IPC: 0.57530 (Simulation time: 0 hr 12 min 4 sec) 
Heartbeat CPU  0 instructions:  250000003 cycles:  339708566 heartbeat IPC: 0.61583 cumulative IPC: 0.57555 (Simulation time: 0 hr 12 min 7 sec) 
Heartbeat CPU  0 instructions:  251000001 cycles:  341324296 heartbeat IPC: 0.61891 cumulative IPC: 0.57582 (Simulation time: 0 hr 12 min 10 sec) 
Heartbeat CPU  0 instructions:  252000000 cycles:  342927061 heartbeat IPC: 0.62392 cumulative IPC: 0.57611 (Simulation time: 0 hr 12 min 13 sec) 
Heartbeat CPU  0 instructions:  253000000 cycles:  344569558 heartbeat IPC: 0.60883 cumulative IPC: 0.57632 (Simulation time: 0 hr 12 min 17 sec) 
Heartbeat CPU  0 instructions:  254000003 cycles:  346155221 heartbeat IPC: 0.63065 cumulative IPC: 0.57664 (Simulation time: 0 hr 12 min 20 sec) 
Heartbeat CPU  0 instructions:  255000000 cycles:  347781462 heartbeat IPC: 0.61491 cumulative IPC: 0.57687 (Simulation time: 0 hr 12 min 23 sec) 
Heartbeat CPU  0 instructions:  256000000 cycles:  349391512 heartbeat IPC: 0.62110 cumulative IPC: 0.57713 (Simulation time: 0 hr 12 min 26 sec) 
Heartbeat CPU  0 instructions:  257000003 cycles:  350999879 heartbeat IPC: 0.62175 cumulative IPC: 0.57740 (Simulation time: 0 hr 12 min 29 sec) 
Heartbeat CPU  0 instructions:  258000003 cycles:  352595628 heartbeat IPC: 0.62666 cumulative IPC: 0.57768 (Simulation time: 0 hr 12 min 32 sec) 
Heartbeat CPU  0 instructions:  259000002 cycles:  354192913 heartbeat IPC: 0.62606 cumulative IPC: 0.57797 (Simulation time: 0 hr 12 min 35 sec) 
Heartbeat CPU  0 instructions:  260000000 cycles:  355801412 heartbeat IPC: 0.62170 cumulative IPC: 0.57822 (Simulation time: 0 hr 12 min 38 sec) 
Heartbeat CPU  0 instructions:  261000000 cycles:  357433942 heartbeat IPC: 0.61255 cumulative IPC: 0.57842 (Simulation time: 0 hr 12 min 41 sec) 
Heartbeat CPU  0 instructions:  262000001 cycles:  359055167 heartbeat IPC: 0.61682 cumulative IPC: 0.57864 (Simulation time: 0 hr 12 min 44 sec) 
Heartbeat CPU  0 instructions:  263000002 cycles:  360700317 heartbeat IPC: 0.60785 cumulative IPC: 0.57881 (Simulation time: 0 hr 12 min 47 sec) 
Heartbeat CPU  0 instructions:  264000000 cycles:  362343885 heartbeat IPC: 0.60843 cumulative IPC: 0.57899 (Simulation time: 0 hr 12 min 51 sec) 
Heartbeat CPU  0 instructions:  265000003 cycles:  363970971 heartbeat IPC: 0.61460 cumulative IPC: 0.57919 (Simulation time: 0 hr 12 min 54 sec) 
Heartbeat CPU  0 instructions:  266000002 cycles:  365573939 heartbeat IPC: 0.62384 cumulative IPC: 0.57944 (Simulation time: 0 hr 12 min 57 sec) 
Heartbeat CPU  0 instructions:  267000003 cycles:  367219387 heartbeat IPC: 0.60774 cumulative IPC: 0.57960 (Simulation time: 0 hr 13 min 0 sec) 
Heartbeat CPU  0 instructions:  268000000 cycles:  368797948 heartbeat IPC: 0.63349 cumulative IPC: 0.57989 (Simulation time: 0 hr 13 min 3 sec) 
Heartbeat CPU  0 instructions:  269000002 cycles:  370392545 heartbeat IPC: 0.62712 cumulative IPC: 0.58015 (Simulation time: 0 hr 13 min 6 sec) 
Heartbeat CPU  0 instructions:  270000001 cycles:  372030428 heartbeat IPC: 0.61054 cumulative IPC: 0.58032 (Simulation time: 0 hr 13 min 9 sec) 
Heartbeat CPU  0 instructions:  271000000 cycles:  373629889 heartbeat IPC: 0.62521 cumulative IPC: 0.58057 (Simulation time: 0 hr 13 min 12 sec) 
Heartbeat CPU  0 instructions:  272000000 cycles:  375250539 heartbeat IPC: 0.61704 cumulative IPC: 0.58077 (Simulation time: 0 hr 13 min 15 sec) 
Heartbeat CPU  0 instructions:  273000001 cycles:  376875079 heartbeat IPC: 0.61556 cumulative IPC: 0.58096 (Simulation time: 0 hr 13 min 18 sec) 
Heartbeat CPU  0 instructions:  274000000 cycles:  378475901 heartbeat IPC: 0.62468 cumulative IPC: 0.58119 (Simulation time: 0 hr 13 min 21 sec) 
Heartbeat CPU  0 instructions:  275000002 cycles:  380101229 heartbeat IPC: 0.61526 cumulative IPC: 0.58137 (Simulation time: 0 hr 13 min 24 sec) 
Heartbeat CPU  0 instructions:  276000000 cycles:  381707273 heartbeat IPC: 0.62265 cumulative IPC: 0.58159 (Simulation time: 0 hr 13 min 28 sec) 
Heartbeat CPU  0 instructions:  277000001 cycles:  383313072 heartbeat IPC: 0.62274 cumulative IPC: 0.58181 (Simulation time: 0 hr 13 min 31 sec) 
Heartbeat CPU  0 instructions:  278000003 cycles:  384935263 heartbeat IPC: 0.61645 cumulative IPC: 0.58199 (Simulation time: 0 hr 13 min 34 sec) 
Heartbeat CPU  0 instructions:  279000002 cycles:  386535327 heartbeat IPC: 0.62497 cumulative IPC: 0.58222 (Simulation time: 0 hr 13 min 37 sec) 
Heartbeat CPU  0 instructions:  280000000 cycles:  388135504 heartbeat IPC: 0.62493 cumulative IPC: 0.58244 (Simulation time: 0 hr 13 min 40 sec) 
Heartbeat CPU  0 instructions:  281000001 cycles:  389764826 heartbeat IPC: 0.61375 cumulative IPC: 0.58260 (Simulation time: 0 hr 13 min 43 sec) 
Heartbeat CPU  0 instructions:  282000002 cycles:  391367737 heartbeat IPC: 0.62387 cumulative IPC: 0.58281 (Simulation time: 0 hr 13 min 46 sec) 
Heartbeat CPU  0 instructions:  283000001 cycles:  392973621 heartbeat IPC: 0.62271 cumulative IPC: 0.58302 (Simulation time: 0 hr 13 min 49 sec) 
Heartbeat CPU  0 instructions:  284000000 cycles:  394602208 heartbeat IPC: 0.61403 cumulative IPC: 0.58318 (Simulation time: 0 hr 13 min 52 sec) 
Heartbeat CPU  0 instructions:  285000001 cycles:  396203298 heartbeat IPC: 0.62458 cumulative IPC: 0.58339 (Simulation time: 0 hr 13 min 55 sec) 
Heartbeat CPU  0 instructions:  286000002 cycles:  397813028 heartbeat IPC: 0.62122 cumulative IPC: 0.58358 (Simulation time: 0 hr 13 min 58 sec) 
Heartbeat CPU  0 instructions:  287000000 cycles:  399433786 heartbeat IPC: 0.61699 cumulative IPC: 0.58375 (Simulation time: 0 hr 14 min 2 sec) 
Heartbeat CPU  0 instructions:  288000000 cycles:  401044154 heartbeat IPC: 0.62098 cumulative IPC: 0.58393 (Simulation time: 0 hr 14 min 5 sec) 
Heartbeat CPU  0 instructions:  289000003 cycles:  402643438 heartbeat IPC: 0.62528 cumulative IPC: 0.58414 (Simulation time: 0 hr 14 min 8 sec) 
Heartbeat CPU  0 instructions:  290000000 cycles:  404258334 heartbeat IPC: 0.61923 cumulative IPC: 0.58431 (Simulation time: 0 hr 14 min 11 sec) 
Heartbeat CPU  0 instructions:  291000000 cycles:  405863860 heartbeat IPC: 0.62285 cumulative IPC: 0.58450 (Simulation time: 0 hr 14 min 14 sec) 
Heartbeat CPU  0 instructions:  292000000 cycles:  407503244 heartbeat IPC: 0.60999 cumulative IPC: 0.58463 (Simulation time: 0 hr 14 min 17 sec) 
Heartbeat CPU  0 instructions:  293000003 cycles:  409119304 heartbeat IPC: 0.61879 cumulative IPC: 0.58480 (Simulation time: 0 hr 14 min 20 sec) 
Heartbeat CPU  0 instructions:  294000000 cycles:  410730919 heartbeat IPC: 0.62049 cumulative IPC: 0.58497 (Simulation time: 0 hr 14 min 23 sec) 
Heartbeat CPU  0 instructions:  295000001 cycles:  412361144 heartbeat IPC: 0.61341 cumulative IPC: 0.58511 (Simulation time: 0 hr 14 min 26 sec) 
Heartbeat CPU  0 instructions:  296000000 cycles:  413964154 heartbeat IPC: 0.62383 cumulative IPC: 0.58529 (Simulation time: 0 hr 14 min 29 sec) 
Heartbeat CPU  0 instructions:  297000003 cycles:  415576394 heartbeat IPC: 0.62026 cumulative IPC: 0.58546 (Simulation time: 0 hr 14 min 33 sec) 
Heartbeat CPU  0 instructions:  298000000 cycles:  417195564 heartbeat IPC: 0.61760 cumulative IPC: 0.58562 (Simulation time: 0 hr 14 min 36 sec) 
Heartbeat CPU  0 instructions:  299000001 cycles:  418808197 heartbeat IPC: 0.62010 cumulative IPC: 0.58578 (Simulation time: 0 hr 14 min 39 sec) 
Heartbeat CPU  0 instructions:  300000000 cycles:  420420049 heartbeat IPC: 0.62040 cumulative IPC: 0.58594 (Simulation time: 0 hr 14 min 42 sec) 
Heartbeat CPU  0 instructions:  301000002 cycles:  422056674 heartbeat IPC: 0.61101 cumulative IPC: 0.58606 (Simulation time: 0 hr 14 min 45 sec) 
Heartbeat CPU  0 instructions:  302000001 cycles:  423676868 heartbeat IPC: 0.61721 cumulative IPC: 0.58621 (Simulation time: 0 hr 14 min 48 sec) 
Heartbeat CPU  0 instructions:  303000002 cycles:  425298945 heartbeat IPC: 0.61649 cumulative IPC: 0.58635 (Simulation time: 0 hr 14 min 51 sec) 
Heartbeat CPU  0 instructions:  304000000 cycles:  426932656 heartbeat IPC: 0.61210 cumulative IPC: 0.58647 (Simulation time: 0 hr 14 min 54 sec) 
Heartbeat CPU  0 instructions:  305000001 cycles:  428503222 heartbeat IPC: 0.63671 cumulative IPC: 0.58670 (Simulation time: 0 hr 14 min 57 sec) 
Heartbeat CPU  0 instructions:  306000000 cycles:  430132889 heartbeat IPC: 0.61362 cumulative IPC: 0.58682 (Simulation time: 0 hr 15 min 0 sec) 
Heartbeat CPU  0 instructions:  307000000 cycles:  431760253 heartbeat IPC: 0.61449 cumulative IPC: 0.58695 (Simulation time: 0 hr 15 min 3 sec) 
Heartbeat CPU  0 instructions:  308000000 cycles:  433529242 heartbeat IPC: 0.56529 cumulative IPC: 0.58684 (Simulation time: 0 hr 15 min 6 sec) 
Heartbeat CPU  0 instructions:  309000002 cycles:  435067332 heartbeat IPC: 0.65016 cumulative IPC: 0.58712 (Simulation time: 0 hr 15 min 9 sec) 
Heartbeat CPU  0 instructions:  310000000 cycles:  436406814 heartbeat IPC: 0.74656 cumulative IPC: 0.58771 (Simulation time: 0 hr 15 min 12 sec) 
Heartbeat CPU  0 instructions:  311000002 cycles:  438234581 heartbeat IPC: 0.54712 cumulative IPC: 0.58751 (Simulation time: 0 hr 15 min 15 sec) 
Heartbeat CPU  0 instructions:  312000000 cycles:  439911554 heartbeat IPC: 0.59631 cumulative IPC: 0.58755 (Simulation time: 0 hr 15 min 18 sec) 
Heartbeat CPU  0 instructions:  313000003 cycles:  441513059 heartbeat IPC: 0.62441 cumulative IPC: 0.58771 (Simulation time: 0 hr 15 min 21 sec) 
Heartbeat CPU  0 instructions:  314000000 cycles:  443191689 heartbeat IPC: 0.59572 cumulative IPC: 0.58775 (Simulation time: 0 hr 15 min 24 sec) 
Heartbeat CPU  0 instructions:  315000003 cycles:  444796163 heartbeat IPC: 0.62326 cumulative IPC: 0.58790 (Simulation time: 0 hr 15 min 28 sec) 
Heartbeat CPU  0 instructions:  316000000 cycles:  446408038 heartbeat IPC: 0.62039 cumulative IPC: 0.58805 (Simulation time: 0 hr 15 min 31 sec) 
Heartbeat CPU  0 instructions:  317000001 cycles:  448059432 heartbeat IPC: 0.60555 cumulative IPC: 0.58812 (Simulation time: 0 hr 15 min 34 sec) 
Heartbeat CPU  0 instructions:  318000000 cycles:  449674180 heartbeat IPC: 0.61929 cumulative IPC: 0.58826 (Simulation time: 0 hr 15 min 37 sec) 
Heartbeat CPU  0 instructions:  319000000 cycles:  451337531 heartbeat IPC: 0.60120 cumulative IPC: 0.58832 (Simulation time: 0 hr 15 min 40 sec) 
Heartbeat CPU  0 instructions:  320000000 cycles:  452932064 heartbeat IPC: 0.62714 cumulative IPC: 0.58848 (Simulation time: 0 hr 15 min 43 sec) 
Heartbeat CPU  0 instructions:  321000000 cycles:  454525656 heartbeat IPC: 0.62751 cumulative IPC: 0.58865 (Simulation time: 0 hr 15 min 46 sec) 
Heartbeat CPU  0 instructions:  322000003 cycles:  456141176 heartbeat IPC: 0.61900 cumulative IPC: 0.58878 (Simulation time: 0 hr 15 min 49 sec) 
Heartbeat CPU  0 instructions:  323000003 cycles:  457748186 heartbeat IPC: 0.62227 cumulative IPC: 0.58892 (Simulation time: 0 hr 15 min 52 sec) 
Heartbeat CPU  0 instructions:  324000000 cycles:  459394808 heartbeat IPC: 0.60730 cumulative IPC: 0.58900 (Simulation time: 0 hr 15 min 55 sec) 
Heartbeat CPU  0 instructions:  325000003 cycles:  460992471 heartbeat IPC: 0.62592 cumulative IPC: 0.58916 (Simulation time: 0 hr 15 min 58 sec) 
Heartbeat CPU  0 instructions:  326000000 cycles:  462635358 heartbeat IPC: 0.60868 cumulative IPC: 0.58924 (Simulation time: 0 hr 16 min 2 sec) 
Heartbeat CPU  0 instructions:  327000001 cycles:  464295806 heartbeat IPC: 0.60225 cumulative IPC: 0.58930 (Simulation time: 0 hr 16 min 5 sec) 
Heartbeat CPU  0 instructions:  328000000 cycles:  465897127 heartbeat IPC: 0.62448 cumulative IPC: 0.58944 (Simulation time: 0 hr 16 min 8 sec) 
Heartbeat CPU  0 instructions:  329000002 cycles:  467531984 heartbeat IPC: 0.61168 cumulative IPC: 0.58953 (Simulation time: 0 hr 16 min 11 sec) 
Heartbeat CPU  0 instructions:  330000003 cycles:  469130175 heartbeat IPC: 0.62571 cumulative IPC: 0.58968 (Simulation time: 0 hr 16 min 14 sec) 
Heartbeat CPU  0 instructions:  331000003 cycles:  470752290 heartbeat IPC: 0.61648 cumulative IPC: 0.58979 (Simulation time: 0 hr 16 min 17 sec) 
Heartbeat CPU  0 instructions:  332000000 cycles:  472366542 heartbeat IPC: 0.61948 cumulative IPC: 0.58992 (Simulation time: 0 hr 16 min 20 sec) 
Heartbeat CPU  0 instructions:  333000003 cycles:  473961728 heartbeat IPC: 0.62689 cumulative IPC: 0.59006 (Simulation time: 0 hr 16 min 23 sec) 
Heartbeat CPU  0 instructions:  334000000 cycles:  475596407 heartbeat IPC: 0.61174 cumulative IPC: 0.59015 (Simulation time: 0 hr 16 min 26 sec) 
Heartbeat CPU  0 instructions:  335000002 cycles:  477223657 heartbeat IPC: 0.61453 cumulative IPC: 0.59025 (Simulation time: 0 hr 16 min 29 sec) 
Heartbeat CPU  0 instructions:  336000000 cycles:  478852574 heartbeat IPC: 0.61390 cumulative IPC: 0.59035 (Simulation time: 0 hr 16 min 32 sec) 
Heartbeat CPU  0 instructions:  337000000 cycles:  480475750 heartbeat IPC: 0.61608 cumulative IPC: 0.59045 (Simulation time: 0 hr 16 min 36 sec) 
Heartbeat CPU  0 instructions:  338000002 cycles:  482084976 heartbeat IPC: 0.62142 cumulative IPC: 0.59058 (Simulation time: 0 hr 16 min 39 sec) 
Heartbeat CPU  0 instructions:  339000001 cycles:  483731755 heartbeat IPC: 0.60725 cumulative IPC: 0.59065 (Simulation time: 0 hr 16 min 42 sec) 
Heartbeat CPU  0 instructions:  340000000 cycles:  485323973 heartbeat IPC: 0.62805 cumulative IPC: 0.59079 (Simulation time: 0 hr 16 min 45 sec) 
Heartbeat CPU  0 instructions:  341000002 cycles:  486933480 heartbeat IPC: 0.62131 cumulative IPC: 0.59091 (Simulation time: 0 hr 16 min 48 sec) 
Heartbeat CPU  0 instructions:  342000003 cycles:  488561252 heartbeat IPC: 0.61434 cumulative IPC: 0.59101 (Simulation time: 0 hr 16 min 51 sec) 
Heartbeat CPU  0 instructions:  343000000 cycles:  490179530 heartbeat IPC: 0.61794 cumulative IPC: 0.59111 (Simulation time: 0 hr 16 min 54 sec) 
Heartbeat CPU  0 instructions:  344000000 cycles:  491815952 heartbeat IPC: 0.61109 cumulative IPC: 0.59119 (Simulation time: 0 hr 16 min 57 sec) 
Heartbeat CPU  0 instructions:  345000003 cycles:  493416900 heartbeat IPC: 0.62463 cumulative IPC: 0.59132 (Simulation time: 0 hr 17 min 0 sec) 
Heartbeat CPU  0 instructions:  346000000 cycles:  495018576 heartbeat IPC: 0.62434 cumulative IPC: 0.59145 (Simulation time: 0 hr 17 min 3 sec) 
Heartbeat CPU  0 instructions:  347000003 cycles:  496648814 heartbeat IPC: 0.61341 cumulative IPC: 0.59153 (Simulation time: 0 hr 17 min 7 sec) 
Heartbeat CPU  0 instructions:  348000000 cycles:  498226871 heartbeat IPC: 0.63369 cumulative IPC: 0.59169 (Simulation time: 0 hr 17 min 10 sec) 
Heartbeat CPU  0 instructions:  349000000 cycles:  499846434 heartbeat IPC: 0.61745 cumulative IPC: 0.59179 (Simulation time: 0 hr 17 min 13 sec) 
Heartbeat CPU  0 instructions:  350000003 cycles:  501458586 heartbeat IPC: 0.62029 cumulative IPC: 0.59190 (Simulation time: 0 hr 17 min 16 sec) 
Heartbeat CPU  0 instructions:  351000001 cycles:  503097850 heartbeat IPC: 0.61003 cumulative IPC: 0.59197 (Simulation time: 0 hr 17 min 19 sec) 
Heartbeat CPU  0 instructions:  352000000 cycles:  504735616 heartbeat IPC: 0.61059 cumulative IPC: 0.59204 (Simulation time: 0 hr 17 min 22 sec) 
Heartbeat CPU  0 instructions:  353000003 cycles:  506354346 heartbeat IPC: 0.61777 cumulative IPC: 0.59214 (Simulation time: 0 hr 17 min 25 sec) 
Heartbeat CPU  0 instructions:  354000000 cycles:  507973333 heartbeat IPC: 0.61767 cumulative IPC: 0.59224 (Simulation time: 0 hr 17 min 28 sec) 
Heartbeat CPU  0 instructions:  355000000 cycles:  509572323 heartbeat IPC: 0.62539 cumulative IPC: 0.59236 (Simulation time: 0 hr 17 min 31 sec) 
Heartbeat CPU  0 instructions:  356000000 cycles:  511180250 heartbeat IPC: 0.62192 cumulative IPC: 0.59247 (Simulation time: 0 hr 17 min 34 sec) 
Heartbeat CPU  0 instructions:  357000002 cycles:  512832785 heartbeat IPC: 0.60513 cumulative IPC: 0.59252 (Simulation time: 0 hr 17 min 38 sec) 
Heartbeat CPU  0 instructions:  358000003 cycles:  514437748 heartbeat IPC: 0.62307 cumulative IPC: 0.59263 (Simulation time: 0 hr 17 min 41 sec) 
Heartbeat CPU  0 instructions:  359000000 cycles:  516085106 heartbeat IPC: 0.60703 cumulative IPC: 0.59268 (Simulation time: 0 hr 17 min 44 sec) 
Heartbeat CPU  0 instructions:  360000000 cycles:  517718414 heartbeat IPC: 0.61225 cumulative IPC: 0.59276 (Simulation time: 0 hr 17 min 47 sec) 
Heartbeat CPU  0 instructions:  361000002 cycles:  519324515 heartbeat IPC: 0.62263 cumulative IPC: 0.59287 (Simulation time: 0 hr 17 min 50 sec) 
Heartbeat CPU  0 instructions:  362000003 cycles:  520961233 heartbeat IPC: 0.61098 cumulative IPC: 0.59293 (Simulation time: 0 hr 17 min 53 sec) 
Heartbeat CPU  0 instructions:  363000003 cycles:  522558699 heartbeat IPC: 0.62599 cumulative IPC: 0.59305 (Simulation time: 0 hr 17 min 56 sec) 
Heartbeat CPU  0 instructions:  364000000 cycles:  524185012 heartbeat IPC: 0.61489 cumulative IPC: 0.59313 (Simulation time: 0 hr 17 min 59 sec) 
Heartbeat CPU  0 instructions:  365000003 cycles:  525787422 heartbeat IPC: 0.62406 cumulative IPC: 0.59324 (Simulation time: 0 hr 18 min 2 sec) 
Heartbeat CPU  0 instructions:  366000000 cycles:  527431379 heartbeat IPC: 0.60829 cumulative IPC: 0.59330 (Simulation time: 0 hr 18 min 5 sec) 
Heartbeat CPU  0 instructions:  367000001 cycles:  529058032 heartbeat IPC: 0.61476 cumulative IPC: 0.59338 (Simulation time: 0 hr 18 min 9 sec) 
Heartbeat CPU  0 instructions:  368000000 cycles:  530663289 heartbeat IPC: 0.62295 cumulative IPC: 0.59348 (Simulation time: 0 hr 18 min 12 sec) 
Heartbeat CPU  0 instructions:  369000003 cycles:  532285248 heartbeat IPC: 0.61654 cumulative IPC: 0.59356 (Simulation time: 0 hr 18 min 15 sec) 
Heartbeat CPU  0 instructions:  370000000 cycles:  533893909 heartbeat IPC: 0.62163 cumulative IPC: 0.59366 (Simulation time: 0 hr 18 min 18 sec) 
Heartbeat CPU  0 instructions:  371000000 cycles:  535536404 heartbeat IPC: 0.60883 cumulative IPC: 0.59372 (Simulation time: 0 hr 18 min 21 sec) 
Heartbeat CPU  0 instructions:  372000000 cycles:  537188525 heartbeat IPC: 0.60528 cumulative IPC: 0.59376 (Simulation time: 0 hr 18 min 24 sec) 
Heartbeat CPU  0 instructions:  373000000 cycles:  538771245 heartbeat IPC: 0.63182 cumulative IPC: 0.59389 (Simulation time: 0 hr 18 min 27 sec) 
Heartbeat CPU  0 instructions:  374000003 cycles:  540407419 heartbeat IPC: 0.61118 cumulative IPC: 0.59395 (Simulation time: 0 hr 18 min 30 sec) 
Heartbeat CPU  0 instructions:  375000002 cycles:  542007391 heartbeat IPC: 0.62501 cumulative IPC: 0.59406 (Simulation time: 0 hr 18 min 33 sec) 
Heartbeat CPU  0 instructions:  376000000 cycles:  543625765 heartbeat IPC: 0.61790 cumulative IPC: 0.59414 (Simulation time: 0 hr 18 min 36 sec) 
Heartbeat CPU  0 instructions:  377000003 cycles:  545211613 heartbeat IPC: 0.63058 cumulative IPC: 0.59427 (Simulation time: 0 hr 18 min 39 sec) 
Heartbeat CPU  0 instructions:  378000000 cycles:  546819137 heartbeat IPC: 0.62207 cumulative IPC: 0.59436 (Simulation time: 0 hr 18 min 43 sec) 
Heartbeat CPU  0 instructions:  379000001 cycles:  548427379 heartbeat IPC: 0.62180 cumulative IPC: 0.59445 (Simulation time: 0 hr 18 min 46 sec) 
Heartbeat CPU  0 instructions:  380000000 cycles:  550019215 heartbeat IPC: 0.62820 cumulative IPC: 0.59457 (Simulation time: 0 hr 18 min 49 sec) 
Heartbeat CPU  0 instructions:  381000002 cycles:  551632851 heartbeat IPC: 0.61972 cumulative IPC: 0.59465 (Simulation time: 0 hr 18 min 52 sec) 
Heartbeat CPU  0 instructions:  382000003 cycles:  553243424 heartbeat IPC: 0.62090 cumulative IPC: 0.59474 (Simulation time: 0 hr 18 min 55 sec) 
Heartbeat CPU  0 instructions:  383000000 cycles:  554854893 heartbeat IPC: 0.62055 cumulative IPC: 0.59483 (Simulation time: 0 hr 18 min 58 sec) 
Heartbeat CPU  0 instructions:  384000000 cycles:  556515658 heartbeat IPC: 0.60213 cumulative IPC: 0.59486 (Simulation time: 0 hr 19 min 1 sec) 
Heartbeat CPU  0 instructions:  385000003 cycles:  558090076 heartbeat IPC: 0.63516 cumulative IPC: 0.59499 (Simulation time: 0 hr 19 min 4 sec) 
Heartbeat CPU  0 instructions:  386000000 cycles:  559724379 heartbeat IPC: 0.61188 cumulative IPC: 0.59505 (Simulation time: 0 hr 19 min 7 sec) 
Heartbeat CPU  0 instructions:  387000002 cycles:  561317925 heartbeat IPC: 0.62753 cumulative IPC: 0.59515 (Simulation time: 0 hr 19 min 10 sec) 
Heartbeat CPU  0 instructions:  388000000 cycles:  562944936 heartbeat IPC: 0.61462 cumulative IPC: 0.59522 (Simulation time: 0 hr 19 min 13 sec) 
Heartbeat CPU  0 instructions:  389000000 cycles:  564559946 heartbeat IPC: 0.61919 cumulative IPC: 0.59530 (Simulation time: 0 hr 19 min 17 sec) 
Heartbeat CPU  0 instructions:  390000000 cycles:  566156269 heartbeat IPC: 0.62644 cumulative IPC: 0.59540 (Simulation time: 0 hr 19 min 20 sec) 
Heartbeat CPU  0 instructions:  391000003 cycles:  567758616 heartbeat IPC: 0.62409 cumulative IPC: 0.59550 (Simulation time: 0 hr 19 min 23 sec) 
Heartbeat CPU  0 instructions:  392000000 cycles:  569335738 heartbeat IPC: 0.63406 cumulative IPC: 0.59562 (Simulation time: 0 hr 19 min 26 sec) 
Heartbeat CPU  0 instructions:  393000000 cycles:  570952513 heartbeat IPC: 0.61852 cumulative IPC: 0.59569 (Simulation time: 0 hr 19 min 29 sec) 
Heartbeat CPU  0 instructions:  394000000 cycles:  572577911 heartbeat IPC: 0.61523 cumulative IPC: 0.59576 (Simulation time: 0 hr 19 min 32 sec) 
Heartbeat CPU  0 instructions:  395000000 cycles:  574159128 heartbeat IPC: 0.63242 cumulative IPC: 0.59588 (Simulation time: 0 hr 19 min 35 sec) 
Heartbeat CPU  0 instructions:  396000000 cycles:  575806366 heartbeat IPC: 0.60708 cumulative IPC: 0.59591 (Simulation time: 0 hr 19 min 38 sec) 
Heartbeat CPU  0 instructions:  397000000 cycles:  577416669 heartbeat IPC: 0.62100 cumulative IPC: 0.59599 (Simulation time: 0 hr 19 min 41 sec) 
Heartbeat CPU  0 instructions:  398000001 cycles:  579029344 heartbeat IPC: 0.62009 cumulative IPC: 0.59607 (Simulation time: 0 hr 19 min 44 sec) 
Heartbeat CPU  0 instructions:  399000002 cycles:  580684521 heartbeat IPC: 0.60417 cumulative IPC: 0.59610 (Simulation time: 0 hr 19 min 47 sec) 
Heartbeat CPU  0 instructions:  400000000 cycles:  582280044 heartbeat IPC: 0.62675 cumulative IPC: 0.59620 (Simulation time: 0 hr 19 min 51 sec) 
Heartbeat CPU  0 instructions:  401000002 cycles:  583910286 heartbeat IPC: 0.61341 cumulative IPC: 0.59625 (Simulation time: 0 hr 19 min 54 sec) 
Heartbeat CPU  0 instructions:  402000003 cycles:  585499698 heartbeat IPC: 0.62916 cumulative IPC: 0.59635 (Simulation time: 0 hr 19 min 57 sec) 
Heartbeat CPU  0 instructions:  403000000 cycles:  587137421 heartbeat IPC: 0.61060 cumulative IPC: 0.59640 (Simulation time: 0 hr 20 min 0 sec) 
Heartbeat CPU  0 instructions:  404000000 cycles:  588775436 heartbeat IPC: 0.61050 cumulative IPC: 0.59645 (Simulation time: 0 hr 20 min 3 sec) 
Heartbeat CPU  0 instructions:  405000003 cycles:  590377908 heartbeat IPC: 0.62404 cumulative IPC: 0.59653 (Simulation time: 0 hr 20 min 6 sec) 
Heartbeat CPU  0 instructions:  406000000 cycles:  591989952 heartbeat IPC: 0.62033 cumulative IPC: 0.59661 (Simulation time: 0 hr 20 min 9 sec) 
Heartbeat CPU  0 instructions:  407000001 cycles:  593587244 heartbeat IPC: 0.62606 cumulative IPC: 0.59670 (Simulation time: 0 hr 20 min 12 sec) 
Heartbeat CPU  0 instructions:  408000000 cycles:  595190661 heartbeat IPC: 0.62367 cumulative IPC: 0.59678 (Simulation time: 0 hr 20 min 15 sec) 
Heartbeat CPU  0 instructions:  409000002 cycles:  596836575 heartbeat IPC: 0.60757 cumulative IPC: 0.59682 (Simulation time: 0 hr 20 min 18 sec) 
Heartbeat CPU  0 instructions:  410000000 cycles:  598427127 heartbeat IPC: 0.62871 cumulative IPC: 0.59691 (Simulation time: 0 hr 20 min 21 sec) 
Heartbeat CPU  0 instructions:  411000001 cycles:  600052795 heartbeat IPC: 0.61513 cumulative IPC: 0.59697 (Simulation time: 0 hr 20 min 25 sec) 
Heartbeat CPU  0 instructions:  412000000 cycles:  601643478 heartbeat IPC: 0.62866 cumulative IPC: 0.59707 (Simulation time: 0 hr 20 min 28 sec) 
Heartbeat CPU  0 instructions:  413000002 cycles:  603280093 heartbeat IPC: 0.61102 cumulative IPC: 0.59711 (Simulation time: 0 hr 20 min 31 sec) 
Heartbeat CPU  0 instructions:  414000001 cycles:  604913891 heartbeat IPC: 0.61207 cumulative IPC: 0.59716 (Simulation time: 0 hr 20 min 34 sec) 
Heartbeat CPU  0 instructions:  415000002 cycles:  606527853 heartbeat IPC: 0.61959 cumulative IPC: 0.59723 (Simulation time: 0 hr 20 min 37 sec) 
Heartbeat CPU  0 instructions:  416000000 cycles:  608152645 heartbeat IPC: 0.61546 cumulative IPC: 0.59728 (Simulation time: 0 hr 20 min 40 sec) 
Heartbeat CPU  0 instructions:  417000003 cycles:  609754502 heartbeat IPC: 0.62428 cumulative IPC: 0.59736 (Simulation time: 0 hr 20 min 43 sec) 
Heartbeat CPU  0 instructions:  418000000 cycles:  611369157 heartbeat IPC: 0.61933 cumulative IPC: 0.59743 (Simulation time: 0 hr 20 min 46 sec) 
Heartbeat CPU  0 instructions:  419000001 cycles:  612975138 heartbeat IPC: 0.62267 cumulative IPC: 0.59751 (Simulation time: 0 hr 20 min 49 sec) 
Heartbeat CPU  0 instructions:  420000000 cycles:  614574530 heartbeat IPC: 0.62524 cumulative IPC: 0.59759 (Simulation time: 0 hr 20 min 52 sec) 
Heartbeat CPU  0 instructions:  421000000 cycles:  616193609 heartbeat IPC: 0.61764 cumulative IPC: 0.59765 (Simulation time: 0 hr 20 min 55 sec) 
Heartbeat CPU  0 instructions:  422000001 cycles:  617773077 heartbeat IPC: 0.63313 cumulative IPC: 0.59775 (Simulation time: 0 hr 20 min 59 sec) 
Heartbeat CPU  0 instructions:  423000001 cycles:  619402226 heartbeat IPC: 0.61382 cumulative IPC: 0.59780 (Simulation time: 0 hr 21 min 2 sec) 
Heartbeat CPU  0 instructions:  424000000 cycles:  621012964 heartbeat IPC: 0.62083 cumulative IPC: 0.59787 (Simulation time: 0 hr 21 min 5 sec) 
Heartbeat CPU  0 instructions:  425000001 cycles:  622609013 heartbeat IPC: 0.62655 cumulative IPC: 0.59795 (Simulation time: 0 hr 21 min 8 sec) 
Heartbeat CPU  0 instructions:  426000002 cycles:  624257168 heartbeat IPC: 0.60674 cumulative IPC: 0.59798 (Simulation time: 0 hr 21 min 11 sec) 
Heartbeat CPU  0 instructions:  427000000 cycles:  625889849 heartbeat IPC: 0.61249 cumulative IPC: 0.59802 (Simulation time: 0 hr 21 min 14 sec) 
Heartbeat CPU  0 instructions:  428000000 cycles:  627488736 heartbeat IPC: 0.62544 cumulative IPC: 0.59810 (Simulation time: 0 hr 21 min 17 sec) 
Heartbeat CPU  0 instructions:  429000000 cycles:  629093263 heartbeat IPC: 0.62324 cumulative IPC: 0.59818 (Simulation time: 0 hr 21 min 20 sec) 
Heartbeat CPU  0 instructions:  430000000 cycles:  630703001 heartbeat IPC: 0.62122 cumulative IPC: 0.59825 (Simulation time: 0 hr 21 min 23 sec) 
Heartbeat CPU  0 instructions:  431000000 cycles:  632516362 heartbeat IPC: 0.55146 cumulative IPC: 0.59809 (Simulation time: 0 hr 21 min 27 sec) 
Heartbeat CPU  0 instructions:  432000000 cycles:  634311043 heartbeat IPC: 0.55720 cumulative IPC: 0.59796 (Simulation time: 0 hr 21 min 30 sec) 
Heartbeat CPU  0 instructions:  433000001 cycles:  635964559 heartbeat IPC: 0.60477 cumulative IPC: 0.59798 (Simulation time: 0 hr 21 min 33 sec) 
Heartbeat CPU  0 instructions:  434000000 cycles:  637620189 heartbeat IPC: 0.60400 cumulative IPC: 0.59800 (Simulation time: 0 hr 21 min 36 sec) 
Heartbeat CPU  0 instructions:  435000003 cycles:  639225104 heartbeat IPC: 0.62309 cumulative IPC: 0.59807 (Simulation time: 0 hr 21 min 39 sec) 
Heartbeat CPU  0 instructions:  436000000 cycles:  640858686 heartbeat IPC: 0.61215 cumulative IPC: 0.59811 (Simulation time: 0 hr 21 min 43 sec) 
Heartbeat CPU  0 instructions:  437000002 cycles:  642478287 heartbeat IPC: 0.61744 cumulative IPC: 0.59817 (Simulation time: 0 hr 21 min 47 sec) 
Heartbeat CPU  0 instructions:  438000001 cycles:  644098189 heartbeat IPC: 0.61732 cumulative IPC: 0.59822 (Simulation time: 0 hr 21 min 50 sec) 
Heartbeat CPU  0 instructions:  439000000 cycles:  645704085 heartbeat IPC: 0.62270 cumulative IPC: 0.59829 (Simulation time: 0 hr 21 min 53 sec) 
Heartbeat CPU  0 instructions:  440000000 cycles:  647345781 heartbeat IPC: 0.60913 cumulative IPC: 0.59832 (Simulation time: 0 hr 21 min 56 sec) 
Heartbeat CPU  0 instructions:  441000001 cycles:  649002890 heartbeat IPC: 0.60346 cumulative IPC: 0.59834 (Simulation time: 0 hr 21 min 59 sec) 
Heartbeat CPU  0 instructions:  442000000 cycles:  650618022 heartbeat IPC: 0.61914 cumulative IPC: 0.59840 (Simulation time: 0 hr 22 min 2 sec) 
Heartbeat CPU  0 instructions:  443000000 cycles:  652233463 heartbeat IPC: 0.61903 cumulative IPC: 0.59845 (Simulation time: 0 hr 22 min 5 sec) 
Heartbeat CPU  0 instructions:  444000000 cycles:  653887858 heartbeat IPC: 0.60445 cumulative IPC: 0.59847 (Simulation time: 0 hr 22 min 9 sec) 
Heartbeat CPU  0 instructions:  445000002 cycles:  655539941 heartbeat IPC: 0.60530 cumulative IPC: 0.59849 (Simulation time: 0 hr 22 min 12 sec) 
Heartbeat CPU  0 instructions:  446000001 cycles:  657157034 heartbeat IPC: 0.61839 cumulative IPC: 0.59855 (Simulation time: 0 hr 22 min 15 sec) 
Heartbeat CPU  0 instructions:  447000003 cycles:  658762703 heartbeat IPC: 0.62279 cumulative IPC: 0.59861 (Simulation time: 0 hr 22 min 18 sec) 
Heartbeat CPU  0 instructions:  448000000 cycles:  660421858 heartbeat IPC: 0.60271 cumulative IPC: 0.59863 (Simulation time: 0 hr 22 min 21 sec) 
Heartbeat CPU  0 instructions:  449000000 cycles:  662075412 heartbeat IPC: 0.60476 cumulative IPC: 0.59864 (Simulation time: 0 hr 22 min 24 sec) 
Heartbeat CPU  0 instructions:  450000003 cycles:  663672516 heartbeat IPC: 0.62614 cumulative IPC: 0.59872 (Simulation time: 0 hr 22 min 27 sec) 
Heartbeat CPU  0 instructions:  451000000 cycles:  665306686 heartbeat IPC: 0.61193 cumulative IPC: 0.59875 (Simulation time: 0 hr 22 min 30 sec) 
Heartbeat CPU  0 instructions:  452000000 cycles:  666959157 heartbeat IPC: 0.60515 cumulative IPC: 0.59877 (Simulation time: 0 hr 22 min 33 sec) 
Heartbeat CPU  0 instructions:  453000001 cycles:  668595480 heartbeat IPC: 0.61113 cumulative IPC: 0.59881 (Simulation time: 0 hr 22 min 37 sec) 
Heartbeat CPU  0 instructions:  454000000 cycles:  670209337 heartbeat IPC: 0.61963 cumulative IPC: 0.59886 (Simulation time: 0 hr 22 min 40 sec) 
Heartbeat CPU  0 instructions:  455000000 cycles:  671841696 heartbeat IPC: 0.61261 cumulative IPC: 0.59890 (Simulation time: 0 hr 22 min 43 sec) 
Heartbeat CPU  0 instructions:  456000000 cycles:  673500536 heartbeat IPC: 0.60283 cumulative IPC: 0.59891 (Simulation time: 0 hr 22 min 46 sec) 
Heartbeat CPU  0 instructions:  457000002 cycles:  675105238 heartbeat IPC: 0.62317 cumulative IPC: 0.59898 (Simulation time: 0 hr 22 min 49 sec) 
Heartbeat CPU  0 instructions:  458000003 cycles:  676764191 heartbeat IPC: 0.60279 cumulative IPC: 0.59899 (Simulation time: 0 hr 22 min 52 sec) 
Heartbeat CPU  0 instructions:  459000001 cycles:  678364914 heartbeat IPC: 0.62472 cumulative IPC: 0.59906 (Simulation time: 0 hr 22 min 55 sec) 
Heartbeat CPU  0 instructions:  460000000 cycles:  679982243 heartbeat IPC: 0.61830 cumulative IPC: 0.59911 (Simulation time: 0 hr 22 min 58 sec) 
Heartbeat CPU  0 instructions:  461000002 cycles:  681605508 heartbeat IPC: 0.61604 cumulative IPC: 0.59915 (Simulation time: 0 hr 23 min 1 sec) 
Heartbeat CPU  0 instructions:  462000003 cycles:  683209341 heartbeat IPC: 0.62351 cumulative IPC: 0.59922 (Simulation time: 0 hr 23 min 5 sec) 
Heartbeat CPU  0 instructions:  463000002 cycles:  684869092 heartbeat IPC: 0.60250 cumulative IPC: 0.59923 (Simulation time: 0 hr 23 min 8 sec) 
Heartbeat CPU  0 instructions:  464000000 cycles:  686491645 heartbeat IPC: 0.61631 cumulative IPC: 0.59927 (Simulation time: 0 hr 23 min 11 sec) 
Heartbeat CPU  0 instructions:  465000001 cycles:  688128956 heartbeat IPC: 0.61076 cumulative IPC: 0.59930 (Simulation time: 0 hr 23 min 14 sec) 
Heartbeat CPU  0 instructions:  466000000 cycles:  689809821 heartbeat IPC: 0.59493 cumulative IPC: 0.59929 (Simulation time: 0 hr 23 min 17 sec) 
Heartbeat CPU  0 instructions:  467000001 cycles:  691447934 heartbeat IPC: 0.61046 cumulative IPC: 0.59932 (Simulation time: 0 hr 23 min 20 sec) 
Heartbeat CPU  0 instructions:  468000000 cycles:  693065618 heartbeat IPC: 0.61817 cumulative IPC: 0.59937 (Simulation time: 0 hr 23 min 23 sec) 
Heartbeat CPU  0 instructions:  469000002 cycles:  694671805 heartbeat IPC: 0.62259 cumulative IPC: 0.59943 (Simulation time: 0 hr 23 min 26 sec) 
Heartbeat CPU  0 instructions:  470000003 cycles:  696309779 heartbeat IPC: 0.61051 cumulative IPC: 0.59946 (Simulation time: 0 hr 23 min 29 sec) 
Heartbeat CPU  0 instructions:  471000002 cycles:  697945466 heartbeat IPC: 0.61136 cumulative IPC: 0.59949 (Simulation time: 0 hr 23 min 33 sec) 
Heartbeat CPU  0 instructions:  472000000 cycles:  699525051 heartbeat IPC: 0.63308 cumulative IPC: 0.59958 (Simulation time: 0 hr 23 min 36 sec) 
Heartbeat CPU  0 instructions:  473000001 cycles:  701154369 heartbeat IPC: 0.61375 cumulative IPC: 0.59962 (Simulation time: 0 hr 23 min 39 sec) 
Heartbeat CPU  0 instructions:  474000000 cycles:  702817081 heartbeat IPC: 0.60143 cumulative IPC: 0.59962 (Simulation time: 0 hr 23 min 42 sec) 
Heartbeat CPU  0 instructions:  475000001 cycles:  704459068 heartbeat IPC: 0.60902 cumulative IPC: 0.59965 (Simulation time: 0 hr 23 min 45 sec) 
Heartbeat CPU  0 instructions:  476000000 cycles:  706109223 heartbeat IPC: 0.60600 cumulative IPC: 0.59966 (Simulation time: 0 hr 23 min 48 sec) 
Heartbeat CPU  0 instructions:  477000003 cycles:  707730176 heartbeat IPC: 0.61692 cumulative IPC: 0.59971 (Simulation time: 0 hr 23 min 51 sec) 
Heartbeat CPU  0 instructions:  478000002 cycles:  709408572 heartbeat IPC: 0.59581 cumulative IPC: 0.59970 (Simulation time: 0 hr 23 min 54 sec) 
Heartbeat CPU  0 instructions:  479000003 cycles:  711000547 heartbeat IPC: 0.62815 cumulative IPC: 0.59977 (Simulation time: 0 hr 23 min 57 sec) 
Heartbeat CPU  0 instructions:  480000000 cycles:  712614251 heartbeat IPC: 0.61969 cumulative IPC: 0.59982 (Simulation time: 0 hr 24 min 1 sec) 
Heartbeat CPU  0 instructions:  481000000 cycles:  714230962 heartbeat IPC: 0.61854 cumulative IPC: 0.59987 (Simulation time: 0 hr 24 min 4 sec) 
Heartbeat CPU  0 instructions:  482000003 cycles:  715817267 heartbeat IPC: 0.63040 cumulative IPC: 0.59994 (Simulation time: 0 hr 24 min 7 sec) 
Heartbeat CPU  0 instructions:  483000000 cycles:  717447136 heartbeat IPC: 0.61354 cumulative IPC: 0.59998 (Simulation time: 0 hr 24 min 10 sec) 
Heartbeat CPU  0 instructions:  484000000 cycles:  719071886 heartbeat IPC: 0.61548 cumulative IPC: 0.60002 (Simulation time: 0 hr 24 min 13 sec) 
Heartbeat CPU  0 instructions:  485000001 cycles:  720750953 heartbeat IPC: 0.59557 cumulative IPC: 0.60001 (Simulation time: 0 hr 24 min 16 sec) 
Heartbeat CPU  0 instructions:  486000000 cycles:  722378756 heartbeat IPC: 0.61432 cumulative IPC: 0.60004 (Simulation time: 0 hr 24 min 19 sec) 
Heartbeat CPU  0 instructions:  487000001 cycles:  723990267 heartbeat IPC: 0.62054 cumulative IPC: 0.60009 (Simulation time: 0 hr 24 min 22 sec) 
Heartbeat CPU  0 instructions:  488000000 cycles:  725659071 heartbeat IPC: 0.59923 cumulative IPC: 0.60009 (Simulation time: 0 hr 24 min 25 sec) 
Heartbeat CPU  0 instructions:  489000002 cycles:  727280968 heartbeat IPC: 0.61656 cumulative IPC: 0.60013 (Simulation time: 0 hr 24 min 29 sec) 
Heartbeat CPU  0 instructions:  490000001 cycles:  728890628 heartbeat IPC: 0.62125 cumulative IPC: 0.60018 (Simulation time: 0 hr 24 min 32 sec) 
Heartbeat CPU  0 instructions:  491000001 cycles:  730518753 heartbeat IPC: 0.61420 cumulative IPC: 0.60022 (Simulation time: 0 hr 24 min 35 sec) 
Heartbeat CPU  0 instructions:  492000000 cycles:  732130794 heartbeat IPC: 0.62033 cumulative IPC: 0.60027 (Simulation time: 0 hr 24 min 38 sec) 
Heartbeat CPU  0 instructions:  493000003 cycles:  733778869 heartbeat IPC: 0.60677 cumulative IPC: 0.60028 (Simulation time: 0 hr 24 min 41 sec) 
Heartbeat CPU  0 instructions:  494000001 cycles:  735397096 heartbeat IPC: 0.61796 cumulative IPC: 0.60033 (Simulation time: 0 hr 24 min 44 sec) 
Heartbeat CPU  0 instructions:  495000000 cycles:  737028782 heartbeat IPC: 0.61286 cumulative IPC: 0.60036 (Simulation time: 0 hr 24 min 47 sec) 
Heartbeat CPU  0 instructions:  496000000 cycles:  738725407 heartbeat IPC: 0.58941 cumulative IPC: 0.60033 (Simulation time: 0 hr 24 min 50 sec) 
Heartbeat CPU  0 instructions:  497000002 cycles:  740357156 heartbeat IPC: 0.61284 cumulative IPC: 0.60036 (Simulation time: 0 hr 24 min 53 sec) 
Heartbeat CPU  0 instructions:  498000000 cycles:  741987090 heartbeat IPC: 0.61352 cumulative IPC: 0.60039 (Simulation time: 0 hr 24 min 57 sec) 
Heartbeat CPU  0 instructions:  499000001 cycles:  743612536 heartbeat IPC: 0.61522 cumulative IPC: 0.60043 (Simulation time: 0 hr 25 min 0 sec) 
Heartbeat CPU  0 instructions:  500000000 cycles:  745259478 heartbeat IPC: 0.60719 cumulative IPC: 0.60045 (Simulation time: 0 hr 25 min 3 sec) 
Heartbeat CPU  0 instructions:  501000000 cycles:  746872769 heartbeat IPC: 0.61985 cumulative IPC: 0.60049 (Simulation time: 0 hr 25 min 6 sec) 
Heartbeat CPU  0 instructions:  502000003 cycles:  748463786 heartbeat IPC: 0.62853 cumulative IPC: 0.60056 (Simulation time: 0 hr 25 min 9 sec) 
Heartbeat CPU  0 instructions:  503000003 cycles:  750101295 heartbeat IPC: 0.61068 cumulative IPC: 0.60059 (Simulation time: 0 hr 25 min 12 sec) 
Heartbeat CPU  0 instructions:  504000000 cycles:  751737811 heartbeat IPC: 0.61105 cumulative IPC: 0.60061 (Simulation time: 0 hr 25 min 15 sec) 
Heartbeat CPU  0 instructions:  505000001 cycles:  753361885 heartbeat IPC: 0.61574 cumulative IPC: 0.60065 (Simulation time: 0 hr 25 min 18 sec) 
Heartbeat CPU  0 instructions:  506000001 cycles:  754991397 heartbeat IPC: 0.61368 cumulative IPC: 0.60068 (Simulation time: 0 hr 25 min 21 sec) 
Heartbeat CPU  0 instructions:  507000003 cycles:  756612861 heartbeat IPC: 0.61673 cumulative IPC: 0.60072 (Simulation time: 0 hr 25 min 25 sec) 
Heartbeat CPU  0 instructions:  508000000 cycles:  758250022 heartbeat IPC: 0.61081 cumulative IPC: 0.60074 (Simulation time: 0 hr 25 min 28 sec) 
Heartbeat CPU  0 instructions:  509000000 cycles:  759881393 heartbeat IPC: 0.61298 cumulative IPC: 0.60077 (Simulation time: 0 hr 25 min 31 sec) 
Heartbeat CPU  0 instructions:  510000002 cycles:  761525521 heartbeat IPC: 0.60823 cumulative IPC: 0.60079 (Simulation time: 0 hr 25 min 34 sec) 
Heartbeat CPU  0 instructions:  511000003 cycles:  763186544 heartbeat IPC: 0.60204 cumulative IPC: 0.60079 (Simulation time: 0 hr 25 min 37 sec) 
Heartbeat CPU  0 instructions:  512000000 cycles:  764819114 heartbeat IPC: 0.61253 cumulative IPC: 0.60082 (Simulation time: 0 hr 25 min 40 sec) 
Heartbeat CPU  0 instructions:  513000001 cycles:  766443092 heartbeat IPC: 0.61577 cumulative IPC: 0.60086 (Simulation time: 0 hr 25 min 43 sec) 
Heartbeat CPU  0 instructions:  514000003 cycles:  768058540 heartbeat IPC: 0.61902 cumulative IPC: 0.60090 (Simulation time: 0 hr 25 min 46 sec) 
Heartbeat CPU  0 instructions:  515000002 cycles:  769711767 heartbeat IPC: 0.60488 cumulative IPC: 0.60091 (Simulation time: 0 hr 25 min 49 sec) 
Heartbeat CPU  0 instructions:  516000000 cycles:  771344552 heartbeat IPC: 0.61245 cumulative IPC: 0.60093 (Simulation time: 0 hr 25 min 53 sec) 
Heartbeat CPU  0 instructions:  517000001 cycles:  772966672 heartbeat IPC: 0.61648 cumulative IPC: 0.60097 (Simulation time: 0 hr 25 min 56 sec) 
Heartbeat CPU  0 instructions:  518000000 cycles:  774678951 heartbeat IPC: 0.58402 cumulative IPC: 0.60093 (Simulation time: 0 hr 25 min 59 sec) 
Heartbeat CPU  0 instructions:  519000003 cycles:  776332606 heartbeat IPC: 0.60472 cumulative IPC: 0.60094 (Simulation time: 0 hr 26 min 2 sec) 
Heartbeat CPU  0 instructions:  520000000 cycles:  777950143 heartbeat IPC: 0.61822 cumulative IPC: 0.60098 (Simulation time: 0 hr 26 min 5 sec) 
Heartbeat CPU  0 instructions:  521000000 cycles:  779631840 heartbeat IPC: 0.59464 cumulative IPC: 0.60096 (Simulation time: 0 hr 26 min 8 sec) 
Heartbeat CPU  0 instructions:  522000003 cycles:  781288966 heartbeat IPC: 0.60346 cumulative IPC: 0.60097 (Simulation time: 0 hr 26 min 11 sec) 
Heartbeat CPU  0 instructions:  523000002 cycles:  782953657 heartbeat IPC: 0.60071 cumulative IPC: 0.60097 (Simulation time: 0 hr 26 min 14 sec) 
Heartbeat CPU  0 instructions:  524000000 cycles:  784548989 heartbeat IPC: 0.62683 cumulative IPC: 0.60103 (Simulation time: 0 hr 26 min 18 sec) 
Heartbeat CPU  0 instructions:  525000001 cycles:  786158391 heartbeat IPC: 0.62135 cumulative IPC: 0.60107 (Simulation time: 0 hr 26 min 21 sec) 
Heartbeat CPU  0 instructions:  526000000 cycles:  787830644 heartbeat IPC: 0.59800 cumulative IPC: 0.60107 (Simulation time: 0 hr 26 min 24 sec) 
Heartbeat CPU  0 instructions:  527000002 cycles:  789434325 heartbeat IPC: 0.62357 cumulative IPC: 0.60112 (Simulation time: 0 hr 26 min 27 sec) 
Heartbeat CPU  0 instructions:  528000000 cycles:  791090214 heartbeat IPC: 0.60390 cumulative IPC: 0.60112 (Simulation time: 0 hr 26 min 30 sec) 
Heartbeat CPU  0 instructions:  529000002 cycles:  792716603 heartbeat IPC: 0.61486 cumulative IPC: 0.60115 (Simulation time: 0 hr 26 min 33 sec) 
Heartbeat CPU  0 instructions:  530000002 cycles:  794356147 heartbeat IPC: 0.60993 cumulative IPC: 0.60117 (Simulation time: 0 hr 26 min 36 sec) 
Heartbeat CPU  0 instructions:  531000002 cycles:  795995664 heartbeat IPC: 0.60994 cumulative IPC: 0.60119 (Simulation time: 0 hr 26 min 39 sec) 
Heartbeat CPU  0 instructions:  532000000 cycles:  797625342 heartbeat IPC: 0.61362 cumulative IPC: 0.60122 (Simulation time: 0 hr 26 min 43 sec) 
Heartbeat CPU  0 instructions:  533000000 cycles:  799254142 heartbeat IPC: 0.61395 cumulative IPC: 0.60125 (Simulation time: 0 hr 26 min 46 sec) 
Heartbeat CPU  0 instructions:  534000003 cycles:  800874398 heartbeat IPC: 0.61719 cumulative IPC: 0.60129 (Simulation time: 0 hr 26 min 49 sec) 
Heartbeat CPU  0 instructions:  535000003 cycles:  802500125 heartbeat IPC: 0.61511 cumulative IPC: 0.60132 (Simulation time: 0 hr 26 min 52 sec) 
Heartbeat CPU  0 instructions:  536000000 cycles:  804124136 heartbeat IPC: 0.61576 cumulative IPC: 0.60135 (Simulation time: 0 hr 26 min 55 sec) 
Heartbeat CPU  0 instructions:  537000001 cycles:  805759774 heartbeat IPC: 0.61138 cumulative IPC: 0.60137 (Simulation time: 0 hr 26 min 58 sec) 
Heartbeat CPU  0 instructions:  538000000 cycles:  807407677 heartbeat IPC: 0.60683 cumulative IPC: 0.60139 (Simulation time: 0 hr 27 min 1 sec) 
Heartbeat CPU  0 instructions:  539000000 cycles:  809109328 heartbeat IPC: 0.58766 cumulative IPC: 0.60135 (Simulation time: 0 hr 27 min 4 sec) 
Heartbeat CPU  0 instructions:  540000000 cycles:  810550777 heartbeat IPC: 0.69375 cumulative IPC: 0.60154 (Simulation time: 0 hr 27 min 7 sec) 
Heartbeat CPU  0 instructions:  541000002 cycles:  811701348 heartbeat IPC: 0.86914 cumulative IPC: 0.60196 (Simulation time: 0 hr 27 min 10 sec) 
Heartbeat CPU  0 instructions:  542000000 cycles:  812889835 heartbeat IPC: 0.84140 cumulative IPC: 0.60234 (Simulation time: 0 hr 27 min 13 sec) 
Heartbeat CPU  0 instructions:  543000002 cycles:  814852709 heartbeat IPC: 0.50946 cumulative IPC: 0.60210 (Simulation time: 0 hr 27 min 16 sec) 
Heartbeat CPU  0 instructions:  544000000 cycles:  816477434 heartbeat IPC: 0.61549 cumulative IPC: 0.60213 (Simulation time: 0 hr 27 min 19 sec) 
Heartbeat CPU  0 instructions:  545000002 cycles:  818080948 heartbeat IPC: 0.62363 cumulative IPC: 0.60217 (Simulation time: 0 hr 27 min 22 sec) 
Heartbeat CPU  0 instructions:  546000002 cycles:  819686475 heartbeat IPC: 0.62285 cumulative IPC: 0.60222 (Simulation time: 0 hr 27 min 25 sec) 
Heartbeat CPU  0 instructions:  547000000 cycles:  821281851 heartbeat IPC: 0.62681 cumulative IPC: 0.60227 (Simulation time: 0 hr 27 min 28 sec) 
Heartbeat CPU  0 instructions:  548000000 cycles:  822892914 heartbeat IPC: 0.62071 cumulative IPC: 0.60231 (Simulation time: 0 hr 27 min 31 sec) 
Heartbeat CPU  0 instructions:  549000002 cycles:  824519459 heartbeat IPC: 0.61480 cumulative IPC: 0.60234 (Simulation time: 0 hr 27 min 34 sec) 
Heartbeat CPU  0 instructions:  550000000 cycles:  826111376 heartbeat IPC: 0.62817 cumulative IPC: 0.60239 (Simulation time: 0 hr 27 min 37 sec) 
Heartbeat CPU  0 instructions:  551000000 cycles:  827704509 heartbeat IPC: 0.62769 cumulative IPC: 0.60245 (Simulation time: 0 hr 27 min 40 sec) 
Heartbeat CPU  0 instructions:  552000000 cycles:  829328046 heartbeat IPC: 0.61594 cumulative IPC: 0.60248 (Simulation time: 0 hr 27 min 44 sec) 
Heartbeat CPU  0 instructions:  553000001 cycles:  830931165 heartbeat IPC: 0.62378 cumulative IPC: 0.60252 (Simulation time: 0 hr 27 min 47 sec) 
Heartbeat CPU  0 instructions:  554000002 cycles:  832522677 heartbeat IPC: 0.62833 cumulative IPC: 0.60258 (Simulation time: 0 hr 27 min 50 sec) 
Heartbeat CPU  0 instructions:  555000000 cycles:  834117229 heartbeat IPC: 0.62713 cumulative IPC: 0.60263 (Simulation time: 0 hr 27 min 53 sec) 
Heartbeat CPU  0 instructions:  556000000 cycles:  835713557 heartbeat IPC: 0.62644 cumulative IPC: 0.60268 (Simulation time: 0 hr 27 min 56 sec) 
Heartbeat CPU  0 instructions:  557000001 cycles:  837338255 heartbeat IPC: 0.61550 cumulative IPC: 0.60270 (Simulation time: 0 hr 27 min 59 sec) 
Heartbeat CPU  0 instructions:  558000003 cycles:  838957648 heartbeat IPC: 0.61752 cumulative IPC: 0.60274 (Simulation time: 0 hr 28 min 2 sec) 
Heartbeat CPU  0 instructions:  559000000 cycles:  840567534 heartbeat IPC: 0.62116 cumulative IPC: 0.60278 (Simulation time: 0 hr 28 min 5 sec) 
Heartbeat CPU  0 instructions:  560000000 cycles:  842176288 heartbeat IPC: 0.62160 cumulative IPC: 0.60281 (Simulation time: 0 hr 28 min 8 sec) 
Heartbeat CPU  0 instructions:  561000000 cycles:  843776206 heartbeat IPC: 0.62503 cumulative IPC: 0.60286 (Simulation time: 0 hr 28 min 11 sec) 
Heartbeat CPU  0 instructions:  562000003 cycles:  845349064 heartbeat IPC: 0.63579 cumulative IPC: 0.60293 (Simulation time: 0 hr 28 min 14 sec) 
Heartbeat CPU  0 instructions:  563000003 cycles:  846934992 heartbeat IPC: 0.63055 cumulative IPC: 0.60299 (Simulation time: 0 hr 28 min 18 sec) 
Heartbeat CPU  0 instructions:  564000000 cycles:  848520279 heartbeat IPC: 0.63080 cumulative IPC: 0.60304 (Simulation time: 0 hr 28 min 21 sec) 
Heartbeat CPU  0 instructions:  565000001 cycles:  850098769 heartbeat IPC: 0.63352 cumulative IPC: 0.60311 (Simulation time: 0 hr 28 min 24 sec) 
Heartbeat CPU  0 instructions:  566000001 cycles:  851701883 heartbeat IPC: 0.62379 cumulative IPC: 0.60315 (Simulation time: 0 hr 28 min 27 sec) 
Heartbeat CPU  0 instructions:  567000000 cycles:  853324574 heartbeat IPC: 0.61626 cumulative IPC: 0.60318 (Simulation time: 0 hr 28 min 30 sec) 
Heartbeat CPU  0 instructions:  568000000 cycles:  854942143 heartbeat IPC: 0.61821 cumulative IPC: 0.60321 (Simulation time: 0 hr 28 min 33 sec) 
Heartbeat CPU  0 instructions:  569000003 cycles:  856542727 heartbeat IPC: 0.62477 cumulative IPC: 0.60325 (Simulation time: 0 hr 28 min 36 sec) 
Heartbeat CPU  0 instructions:  570000000 cycles:  858172051 heartbeat IPC: 0.61375 cumulative IPC: 0.60327 (Simulation time: 0 hr 28 min 39 sec) 
Heartbeat CPU  0 instructions:  571000000 cycles:  859766897 heartbeat IPC: 0.62702 cumulative IPC: 0.60332 (Simulation time: 0 hr 28 min 42 sec) 
Heartbeat CPU  0 instructions:  572000000 cycles:  861342574 heartbeat IPC: 0.63465 cumulative IPC: 0.60339 (Simulation time: 0 hr 28 min 45 sec) 
Heartbeat CPU  0 instructions:  573000000 cycles:  862938083 heartbeat IPC: 0.62676 cumulative IPC: 0.60343 (Simulation time: 0 hr 28 min 48 sec) 
Heartbeat CPU  0 instructions:  574000001 cycles:  864531451 heartbeat IPC: 0.62760 cumulative IPC: 0.60348 (Simulation time: 0 hr 28 min 51 sec) 
Heartbeat CPU  0 instructions:  575000001 cycles:  866133055 heartbeat IPC: 0.62437 cumulative IPC: 0.60352 (Simulation time: 0 hr 28 min 54 sec) 
Heartbeat CPU  0 instructions:  576000000 cycles:  867717854 heartbeat IPC: 0.63099 cumulative IPC: 0.60358 (Simulation time: 0 hr 28 min 58 sec) 
Heartbeat CPU  0 instructions:  577000001 cycles:  869319098 heartbeat IPC: 0.62452 cumulative IPC: 0.60362 (Simulation time: 0 hr 29 min 1 sec) 
Heartbeat CPU  0 instructions:  578000001 cycles:  870945901 heartbeat IPC: 0.61470 cumulative IPC: 0.60365 (Simulation time: 0 hr 29 min 4 sec) 
Heartbeat CPU  0 instructions:  579000000 cycles:  872594888 heartbeat IPC: 0.60643 cumulative IPC: 0.60365 (Simulation time: 0 hr 29 min 7 sec) 
Heartbeat CPU  0 instructions:  580000000 cycles:  874228119 heartbeat IPC: 0.61228 cumulative IPC: 0.60367 (Simulation time: 0 hr 29 min 10 sec) 
Heartbeat CPU  0 instructions:  581000002 cycles:  875821865 heartbeat IPC: 0.62745 cumulative IPC: 0.60372 (Simulation time: 0 hr 29 min 13 sec) 
Heartbeat CPU  0 instructions:  582000000 cycles:  877423265 heartbeat IPC: 0.62445 cumulative IPC: 0.60376 (Simulation time: 0 hr 29 min 16 sec) 
Heartbeat CPU  0 instructions:  583000000 cycles:  879011159 heartbeat IPC: 0.62976 cumulative IPC: 0.60381 (Simulation time: 0 hr 29 min 19 sec) 
Heartbeat CPU  0 instructions:  584000000 cycles:  880595576 heartbeat IPC: 0.63115 cumulative IPC: 0.60386 (Simulation time: 0 hr 29 min 22 sec) 
Heartbeat CPU  0 instructions:  585000003 cycles:  882187690 heartbeat IPC: 0.62810 cumulative IPC: 0.60391 (Simulation time: 0 hr 29 min 25 sec) 
Heartbeat CPU  0 instructions:  586000000 cycles:  883768603 heartbeat IPC: 0.63254 cumulative IPC: 0.60397 (Simulation time: 0 hr 29 min 29 sec) 
Heartbeat CPU  0 instructions:  587000001 cycles:  885352039 heartbeat IPC: 0.63154 cumulative IPC: 0.60402 (Simulation time: 0 hr 29 min 32 sec) 
Heartbeat CPU  0 instructions:  588000000 cycles:  886996220 heartbeat IPC: 0.60820 cumulative IPC: 0.60403 (Simulation time: 0 hr 29 min 35 sec) 
Heartbeat CPU  0 instructions:  589000000 cycles:  888590737 heartbeat IPC: 0.62715 cumulative IPC: 0.60408 (Simulation time: 0 hr 29 min 38 sec) 
Heartbeat CPU  0 instructions:  590000003 cycles:  890209576 heartbeat IPC: 0.61773 cumulative IPC: 0.60410 (Simulation time: 0 hr 29 min 41 sec) 
Heartbeat CPU  0 instructions:  591000002 cycles:  891831107 heartbeat IPC: 0.61670 cumulative IPC: 0.60413 (Simulation time: 0 hr 29 min 44 sec) 
Heartbeat CPU  0 instructions:  592000000 cycles:  893442391 heartbeat IPC: 0.62062 cumulative IPC: 0.60416 (Simulation time: 0 hr 29 min 47 sec) 
Heartbeat CPU  0 instructions:  593000001 cycles:  895056640 heartbeat IPC: 0.61948 cumulative IPC: 0.60419 (Simulation time: 0 hr 29 min 50 sec) 
Heartbeat CPU  0 instructions:  594000000 cycles:  896653022 heartbeat IPC: 0.62642 cumulative IPC: 0.60423 (Simulation time: 0 hr 29 min 53 sec) 
Heartbeat CPU  0 instructions:  595000000 cycles:  898242512 heartbeat IPC: 0.62913 cumulative IPC: 0.60428 (Simulation time: 0 hr 29 min 56 sec) 
Heartbeat CPU  0 instructions:  596000000 cycles:  899835957 heartbeat IPC: 0.62757 cumulative IPC: 0.60433 (Simulation time: 0 hr 29 min 59 sec) 
Heartbeat CPU  0 instructions:  597000003 cycles:  901444714 heartbeat IPC: 0.62160 cumulative IPC: 0.60436 (Simulation time: 0 hr 30 min 3 sec) 
Heartbeat CPU  0 instructions:  598000002 cycles:  903031271 heartbeat IPC: 0.63030 cumulative IPC: 0.60441 (Simulation time: 0 hr 30 min 6 sec) 
Heartbeat CPU  0 instructions:  599000003 cycles:  904633435 heartbeat IPC: 0.62416 cumulative IPC: 0.60445 (Simulation time: 0 hr 30 min 9 sec) 
Heartbeat CPU  0 instructions:  600000000 cycles:  906238648 heartbeat IPC: 0.62297 cumulative IPC: 0.60449 (Simulation time: 0 hr 30 min 12 sec) 
Finished CPU 0 instructions: 500000000 cycles: 827148886 cumulative IPC: 0.60449 (Simulation time: 0 hr 30 min 12 sec) 

ChampSim completed all CPUs

[ROI Statistics]
Core_0_instructions 500000000
Core_0_cycles 827148886
Core_0_IPC 0.60449

Core_0_branch_prediction_accuracy 99.58640
Core_0_branch_MPKI 0.02120
Core_0_average_ROB_occupancy_at_mispredict 244.45288

Core_0_L1D_total_access 288449878
Core_0_L1D_total_hit 284139545
Core_0_L1D_total_miss 4310333
Core_0_L1D_loads 257471395
Core_0_L1D_load_hit 253161960
Core_0_L1D_load_miss 4309435
Core_0_L1D_RFOs 30978483
Core_0_L1D_RFO_hit 30977585
Core_0_L1D_RFO_miss 898
Core_0_L1D_prefetches 0
Core_0_L1D_prefetch_hit 0
Core_0_L1D_prefetch_miss 0
Core_0_L1D_writebacks 0
Core_0_L1D_writeback_hit 0
Core_0_L1D_writeback_miss 0
Core_0_L1D_prefetch_requested 0
Core_0_L1D_prefetch_dropped 0
Core_0_L1D_prefetch_issued 0
Core_0_L1D_prefetch_filled 0
Core_0_L1D_prefetch_useful 0
Core_0_L1D_prefetch_useless 0
Core_0_L1D_prefetch_late 0
Core_0_L1D_average_miss_latency 61.36234

Core_0_L1D_rq_access 307606010
Core_0_L1D_rq_forward 0
Core_0_L1D_rq_merged 50079655
Core_0_L1D_rq_to_cache 257502868
Core_0_L1D_rq_full 0

Core_0_L1D_wq_access 30978597
Core_0_L1D_wq_forward 23487
Core_0_L1D_wq_merged 0
Core_0_L1D_wq_to_cache 30978597
Core_0_L1D_wq_full 0

Core_0_L1D_pq_access 0
Core_0_L1D_pq_forward 0
Core_0_L1D_pq_merged 0
Core_0_L1D_pq_to_cache 0
Core_0_L1D_pq_full 0

Core_0_L1D_acc_epochs 871834
Core_0_L1D_acc_level_0 871834
Core_0_L1D_acc_level_1 0
Core_0_L1D_acc_level_2 0
Core_0_L1D_acc_level_3 0
Core_0_L1D_acc_level_4 0
Core_0_L1D_acc_level_5 0
Core_0_L1D_acc_level_6 0
Core_0_L1D_acc_level_7 0
Core_0_L1D_acc_level_8 0
Core_0_L1D_acc_level_9 0

Core_0_L1I_total_access 133874277
Core_0_L1I_total_hit 133874100
Core_0_L1I_total_miss 177
Core_0_L1I_loads 133874277
Core_0_L1I_load_hit 133874100
Core_0_L1I_load_miss 177
Core_0_L1I_RFOs 0
Core_0_L1I_RFO_hit 0
Core_0_L1I_RFO_miss 0
Core_0_L1I_prefetches 0
Core_0_L1I_prefetch_hit 0
Core_0_L1I_prefetch_miss 0
Core_0_L1I_writebacks 0
Core_0_L1I_writeback_hit 0
Core_0_L1I_writeback_miss 0
Core_0_L1I_prefetch_requested 0
Core_0_L1I_prefetch_dropped 0
Core_0_L1I_prefetch_issued 0
Core_0_L1I_prefetch_filled 0
Core_0_L1I_prefetch_useful 0
Core_0_L1I_prefetch_useless 0
Core_0_L1I_prefetch_late 0
Core_0_L1I_average_miss_latency 428.97740

Core_0_L1I_rq_access 500000003
Core_0_L1I_rq_forward 0
Core_0_L1I_rq_merged 366125654
Core_0_L1I_rq_to_cache 133874349
Core_0_L1I_rq_full 0

Core_0_L1I_wq_access 0
Core_0_L1I_wq_forward 0
Core_0_L1I_wq_merged 0
Core_0_L1I_wq_to_cache 0
Core_0_L1I_wq_full 0

Core_0_L1I_pq_access 0
Core_0_L1I_pq_forward 0
Core_0_L1I_pq_merged 0
Core_0_L1I_pq_to_cache 0
Core_0_L1I_pq_full 0

Core_0_L1I_acc_epochs 871834
Core_0_L1I_acc_level_0 871834
Core_0_L1I_acc_level_1 0
Core_0_L1I_acc_level_2 0
Core_0_L1I_acc_level_3 0
Core_0_L1I_acc_level_4 0
Core_0_L1I_acc_level_5 0
Core_0_L1I_acc_level_6 0
Core_0_L1I_acc_level_7 0
Core_0_L1I_acc_level_8 0
Core_0_L1I_acc_level_9 0

Core_0_L2C_total_access 9424007
Core_0_L2C_total_hit 5792740
Core_0_L2C_total_miss 3631267
Core_0_L2C_loads 4308676
Core_0_L2C_load_hit 3681183
Core_0_L2C_load_miss 627493
Core_0_L2C_RFOs 775
Core_0_L2C_RFO_hit 752
Core_0_L2C_RFO_miss 23
Core_0_L2C_prefetches 3188522
Core_0_L2C_prefetch_hit 184888
Core_0_L2C_prefetch_miss 3003634
Core_0_L2C_writebacks 1926034
Core_0_L2C_writeback_hit 1925917
Core_0_L2C_writeback_miss 117
Core_0_L2C_prefetch_requested 4524767
Core_0_L2C_prefetch_dropped 0
Core_0_L2C_prefetch_issued 4524767
Core_0_L2C_prefetch_filled 3477051
Core_0_L2C_prefetch_useful 3283103
Core_0_L2C_prefetch_useless 193693
Core_0_L2C_prefetch_late 1035
Core_0_L2C_average_miss_latency 839.66166

Core_0_L2C_rq_access 4310510
Core_0_L2C_rq_forward 0
Core_0_L2C_rq_merged 0
Core_0_L2C_rq_to_cache 4309451
Core_0_L2C_rq_full 0

Core_0_L2C_wq_access 1926034
Core_0_L2C_wq_forward 1059
Core_0_L2C_wq_merged 0
Core_0_L2C_wq_to_cache 1926034
Core_0_L2C_wq_full 0

Core_0_L2C_pq_access 4524767
Core_0_L2C_pq_forward 0
Core_0_L2C_pq_merged 0
Core_0_L2C_pq_to_cache 4524767
Core_0_L2C_pq_full 0

Core_0_L2C_acc_epochs 871834
Core_0_L2C_acc_level_0 428549
Core_0_L2C_acc_level_1 101470
Core_0_L2C_acc_level_2 76162
Core_0_L2C_acc_level_3 56196
Core_0_L2C_acc_level_4 37056
Core_0_L2C_acc_level_5 32971
Core_0_L2C_acc_level_6 20996
Core_0_L2C_acc_level_7 19331
Core_0_L2C_acc_level_8 13556
Core_0_L2C_acc_level_9 85547

Core_0_LLC_total_access 5960841
Core_0_LLC_total_hit 749980
Core_0_LLC_total_miss 5210861
Core_0_LLC_loads 626472
Core_0_LLC_load_hit 263353
Core_0_LLC_load_miss 363119
Core_0_LLC_RFOs 22
Core_0_LLC_RFO_hit 5
Core_0_LLC_RFO_miss 17
Core_0_LLC_prefetches 3424465
Core_0_LLC_prefetch_hit 140252
Core_0_LLC_prefetch_miss 3284213
Core_0_LLC_writebacks 1909882
Core_0_LLC_writeback_hit 346370
Core_0_LLC_writeback_miss 1563512
Core_0_LLC_prefetch_requested 0
Core_0_LLC_prefetch_dropped 0
Core_0_LLC_prefetch_issued 0
Core_0_LLC_prefetch_filled 4060386
Core_0_LLC_prefetch_useful 305724
Core_0_LLC_prefetch_useless 3753414
Core_0_LLC_prefetch_late 18
Core_0_LLC_average_miss_latency 604.04434

Core_0_LLC_rq_access 626494
Core_0_LLC_rq_forward 0
Core_0_LLC_rq_merged 0
Core_0_LLC_rq_to_cache 626494
Core_0_LLC_rq_full 0

Core_0_LLC_wq_access 1909882
Core_0_LLC_wq_forward 0
Core_0_LLC_wq_merged 0
Core_0_LLC_wq_to_cache 1909882
Core_0_LLC_wq_full 0

Core_0_LLC_pq_access 4324705
Core_0_LLC_pq_forward 0
Core_0_LLC_pq_merged 0
Core_0_LLC_pq_to_cache 4324705
Core_0_LLC_pq_full 0

Core_0_LLC_acc_epochs 884999
Core_0_LLC_acc_level_0 813906
Core_0_LLC_acc_level_1 33822
Core_0_LLC_acc_level_2 15022
Core_0_LLC_acc_level_3 7347
Core_0_LLC_acc_level_4 2162
Core_0_LLC_acc_level_5 5523
Core_0_LLC_acc_level_6 1348
Core_0_LLC_acc_level_7 1383
Core_0_LLC_acc_level_8 538
Core_0_LLC_acc_level_9 3948

Core_0_major_page_fault 0
Core_0_minor_page_fault 169020

[Bingo] PHT Access: 797051
[Bingo] PHT Hit PC+Addr: 11225
[Bingo] PHT Hit PC+Offs: 630450
[Bingo] PHT Miss: 155376
[Bingo] Prefetch PC+Addr: 0
[Bingo] Prefetch PC+Offs: 0
[Bingo] Useful PC+Addr: 0
[Bingo] Useful PC+Offs: 0
[Bingo] Useless PC+Addr: 0
[Bingo] Useless PC+Offs: 0
[Bingo] L1 Prefetch per Region: 0.00000
[Bingo] L2 Prefetch per Region: 6.76193
[Bingo] L3 Prefetch per Region: 1.37032
[Bingo] No Prefetch per Region: 23.86775
[Bingo] Number of Voters Mean: 13.21507
[Bingo] Number of Voters SD: 4.08166

Channel_0_RQ_row_buffer_hit 2395588
Channel_0_RQ_row_buffer_miss 1251761
Channel_0_WQ_row_buffer_hit 329723
Channel_0_WQ_row_buffer_miss 1559372
Channel_0_WQ_full 0
Channel_0_dbus_congested 5065460

avg_congested_cycle 50

DRAM_bw_pochs 3539995
DRAM_bw_level_0 2886533
DRAM_bw_level_1 91282
DRAM_bw_level_2 89351
DRAM_bw_level_3 472829
