*************************************************
   ChampSim Multicore Out-of-Order Simulator
   Last compiled: Dec 11 2024 17:59:53
*************************************************
parsing config file: /home/functionmain/桌面/Pythia/config/nopref.ini

trace_0 /home/functionmain/桌面/Pythia/traces/459.GemsFDTD-1211B.champsimtrace.xz
adding L2C_PREFETCHER: NONE
Initialize SHIP state
warmup_instructions 100000000
simulation_instructions 500000000
champsim_seed 263
measure_ipc 0
measure_ipc_epoch 1000
measure_dram_bw 1
measure_dram_bw_epoch 256
measure_cache_acc 1
measure_cache_acc_epoch 1024
l1d_perfect 0
l2c_perfect 0
llc_perfect 0
l1d_semi_perfect 0
l2c_semi_perfect 0
llc_semi_perfect 0
semi_perfect_cache_page_buffer_size 64

num_cpus 1
cpu_freq 4000
dram_io_freq 600
page_size 4096
block_size 64
max_read_per_cycle 8
max_fill_per_cycle 1
dram_channels 1
log2_dram_channels 0
dram_ranks 1
dram_banks 8
dram_rows 65536
dram_columns 128
dram_row_size 8
dram_size 4096
dram_pages 1048576

fetch_width 6
decode_width 6
exec_width 4
lq_width 2
sq_width 2
retire_width 4
scheduler_size 128
branch_mispredict_penalty 20
rob_size 256
lq_size 72
sq_size 56
num_instr_destinations_sparc 4
num_instr_destinations 2
num_instr_sources 4

itlb_set 16
itlb_way 8
itlb_rq_size 16
itlb_wq_size 16
itlb_pq_size 0
itlb_mshr_size 8
itlb_latency 1

dtlb_set 16
dtlb_way 4
dtlb_rq_size 16
dtlb_wq_size 16
dtlb_pq_size 0
dtlb_mshr_size 8
dtlb_latency 1

stlb_set 128
stlb_way 12
stlb_rq_size 32
stlb_wq_size 32
stlb_pq_size 0
stlb_mshr_size 16
stlb_latency 8

l1i_size 32
l1i_set 64
l1i_way 8
l1i_rq_size 64
l1i_wq_size 64
l1i_pq_size 8
l1i_mshr_size 8
l1i_latency 1

l1d_size 32
l1d_set 64
l1d_way 8
l1d_rq_size 64
l1d_wq_size 64
l1d_pq_size 8
l1d_mshr_size 16
l1d_latency 4

l2c_size 256
l2c_set 512
l2c_way 8
l2c_rq_size 32
l2c_wq_size 32
l2c_pq_size 32
l2c_mshr_size 32
l2c_latency 10

llc_size 2048
llc_set 2048
llc_way 16
llc_rq_size 32
llc_wq_size 32
llc_pq_size 32
llc_mshr_size 64
llc_latency 20

dram_channel_width 8
dram_wq_size 64
dram_rq_size 64
tRP 15
tRCD 15
tCAS 12.5
dram_dbus_turn_around_time 30
dram_write_high_wm 56
dram_write_low_wm 48
min_dram_writes_per_switch 16
dram_mtps 600
dram_dbus_return_time 53


Heartbeat CPU  0 instructions:    1000003 cycles:     792504 heartbeat IPC: 1.26183 cumulative IPC: 1.26183 (Simulation time: 0 hr 0 min 2 sec) 
Heartbeat CPU  0 instructions:    2000002 cycles:    1584347 heartbeat IPC: 1.26288 cumulative IPC: 1.26235 (Simulation time: 0 hr 0 min 5 sec) 
Heartbeat CPU  0 instructions:    3000003 cycles:    2376173 heartbeat IPC: 1.26291 cumulative IPC: 1.26254 (Simulation time: 0 hr 0 min 7 sec) 
Heartbeat CPU  0 instructions:    4000000 cycles:    3168033 heartbeat IPC: 1.26285 cumulative IPC: 1.26261 (Simulation time: 0 hr 0 min 10 sec) 
Heartbeat CPU  0 instructions:    5000000 cycles:    3959827 heartbeat IPC: 1.26295 cumulative IPC: 1.26268 (Simulation time: 0 hr 0 min 13 sec) 
Heartbeat CPU  0 instructions:    6000002 cycles:    4751705 heartbeat IPC: 1.26282 cumulative IPC: 1.26271 (Simulation time: 0 hr 0 min 15 sec) 
Heartbeat CPU  0 instructions:    7000000 cycles:    5543418 heartbeat IPC: 1.26308 cumulative IPC: 1.26276 (Simulation time: 0 hr 0 min 18 sec) 
Heartbeat CPU  0 instructions:    8000000 cycles:    6335356 heartbeat IPC: 1.26273 cumulative IPC: 1.26275 (Simulation time: 0 hr 0 min 20 sec) 
Heartbeat CPU  0 instructions:    9000000 cycles:    7127259 heartbeat IPC: 1.26278 cumulative IPC: 1.26276 (Simulation time: 0 hr 0 min 23 sec) 
Heartbeat CPU  0 instructions:   10000001 cycles:    7918907 heartbeat IPC: 1.26319 cumulative IPC: 1.26280 (Simulation time: 0 hr 0 min 26 sec) 
Heartbeat CPU  0 instructions:   11000000 cycles:    8710540 heartbeat IPC: 1.26321 cumulative IPC: 1.26284 (Simulation time: 0 hr 0 min 28 sec) 
Heartbeat CPU  0 instructions:   12000000 cycles:    9502430 heartbeat IPC: 1.26280 cumulative IPC: 1.26283 (Simulation time: 0 hr 0 min 31 sec) 
Heartbeat CPU  0 instructions:   13000000 cycles:   10294282 heartbeat IPC: 1.26286 cumulative IPC: 1.26284 (Simulation time: 0 hr 0 min 34 sec) 
Heartbeat CPU  0 instructions:   14000002 cycles:   11086070 heartbeat IPC: 1.26297 cumulative IPC: 1.26285 (Simulation time: 0 hr 0 min 36 sec) 
Heartbeat CPU  0 instructions:   15000000 cycles:   11877962 heartbeat IPC: 1.26280 cumulative IPC: 1.26284 (Simulation time: 0 hr 0 min 39 sec) 
Heartbeat CPU  0 instructions:   16000000 cycles:   12669789 heartbeat IPC: 1.26290 cumulative IPC: 1.26285 (Simulation time: 0 hr 0 min 41 sec) 
Heartbeat CPU  0 instructions:   17000001 cycles:   13461732 heartbeat IPC: 1.26272 cumulative IPC: 1.26284 (Simulation time: 0 hr 0 min 44 sec) 
Heartbeat CPU  0 instructions:   18000002 cycles:   14253429 heartbeat IPC: 1.26311 cumulative IPC: 1.26285 (Simulation time: 0 hr 0 min 46 sec) 
Heartbeat CPU  0 instructions:   19000000 cycles:   15045322 heartbeat IPC: 1.26279 cumulative IPC: 1.26285 (Simulation time: 0 hr 0 min 49 sec) 
Heartbeat CPU  0 instructions:   20000000 cycles:   15836863 heartbeat IPC: 1.26336 cumulative IPC: 1.26288 (Simulation time: 0 hr 0 min 51 sec) 
Heartbeat CPU  0 instructions:   21000000 cycles:   16628531 heartbeat IPC: 1.26316 cumulative IPC: 1.26289 (Simulation time: 0 hr 0 min 54 sec) 
Heartbeat CPU  0 instructions:   22000003 cycles:   17420331 heartbeat IPC: 1.26295 cumulative IPC: 1.26289 (Simulation time: 0 hr 0 min 57 sec) 
Heartbeat CPU  0 instructions:   23000000 cycles:   18212238 heartbeat IPC: 1.26277 cumulative IPC: 1.26289 (Simulation time: 0 hr 0 min 59 sec) 
Heartbeat CPU  0 instructions:   24000000 cycles:   19004140 heartbeat IPC: 1.26278 cumulative IPC: 1.26288 (Simulation time: 0 hr 1 min 2 sec) 
Heartbeat CPU  0 instructions:   25000001 cycles:   19796055 heartbeat IPC: 1.26276 cumulative IPC: 1.26288 (Simulation time: 0 hr 1 min 4 sec) 
Heartbeat CPU  0 instructions:   26000002 cycles:   20587957 heartbeat IPC: 1.26278 cumulative IPC: 1.26287 (Simulation time: 0 hr 1 min 7 sec) 
Heartbeat CPU  0 instructions:   27000001 cycles:   21379631 heartbeat IPC: 1.26314 cumulative IPC: 1.26288 (Simulation time: 0 hr 1 min 9 sec) 
Heartbeat CPU  0 instructions:   28000000 cycles:   22171514 heartbeat IPC: 1.26281 cumulative IPC: 1.26288 (Simulation time: 0 hr 1 min 12 sec) 
Heartbeat CPU  0 instructions:   29000001 cycles:   22963368 heartbeat IPC: 1.26286 cumulative IPC: 1.26288 (Simulation time: 0 hr 1 min 15 sec) 
Heartbeat CPU  0 instructions:   30000002 cycles:   23755115 heartbeat IPC: 1.26303 cumulative IPC: 1.26289 (Simulation time: 0 hr 1 min 17 sec) 
Heartbeat CPU  0 instructions:   31000001 cycles:   24546903 heartbeat IPC: 1.26296 cumulative IPC: 1.26289 (Simulation time: 0 hr 1 min 20 sec) 
Heartbeat CPU  0 instructions:   32000000 cycles:   25338406 heartbeat IPC: 1.26342 cumulative IPC: 1.26291 (Simulation time: 0 hr 1 min 22 sec) 
Heartbeat CPU  0 instructions:   33000001 cycles:   26130356 heartbeat IPC: 1.26271 cumulative IPC: 1.26290 (Simulation time: 0 hr 1 min 25 sec) 
Heartbeat CPU  0 instructions:   34000003 cycles:   26922199 heartbeat IPC: 1.26288 cumulative IPC: 1.26290 (Simulation time: 0 hr 1 min 27 sec) 
Heartbeat CPU  0 instructions:   35000001 cycles:   27713959 heartbeat IPC: 1.26301 cumulative IPC: 1.26290 (Simulation time: 0 hr 1 min 30 sec) 
Heartbeat CPU  0 instructions:   36000000 cycles:   28505871 heartbeat IPC: 1.26277 cumulative IPC: 1.26290 (Simulation time: 0 hr 1 min 32 sec) 
Heartbeat CPU  0 instructions:   37000000 cycles:   29297689 heartbeat IPC: 1.26292 cumulative IPC: 1.26290 (Simulation time: 0 hr 1 min 35 sec) 
Heartbeat CPU  0 instructions:   38000000 cycles:   30089393 heartbeat IPC: 1.26310 cumulative IPC: 1.26290 (Simulation time: 0 hr 1 min 38 sec) 
Heartbeat CPU  0 instructions:   39000001 cycles:   30881180 heartbeat IPC: 1.26297 cumulative IPC: 1.26291 (Simulation time: 0 hr 1 min 40 sec) 
Heartbeat CPU  0 instructions:   40000000 cycles:   31663903 heartbeat IPC: 1.27759 cumulative IPC: 1.26327 (Simulation time: 0 hr 1 min 43 sec) 
Heartbeat CPU  0 instructions:   41000001 cycles:   32436843 heartbeat IPC: 1.29376 cumulative IPC: 1.26399 (Simulation time: 0 hr 1 min 45 sec) 
Heartbeat CPU  0 instructions:   42000003 cycles:   33209539 heartbeat IPC: 1.29417 cumulative IPC: 1.26470 (Simulation time: 0 hr 1 min 48 sec) 
Heartbeat CPU  0 instructions:   43000001 cycles:   33985375 heartbeat IPC: 1.28893 cumulative IPC: 1.26525 (Simulation time: 0 hr 1 min 50 sec) 
Heartbeat CPU  0 instructions:   44000000 cycles:   34776902 heartbeat IPC: 1.26338 cumulative IPC: 1.26521 (Simulation time: 0 hr 1 min 53 sec) 
Heartbeat CPU  0 instructions:   45000001 cycles:   35568293 heartbeat IPC: 1.26360 cumulative IPC: 1.26517 (Simulation time: 0 hr 1 min 56 sec) 
Heartbeat CPU  0 instructions:   46000003 cycles:   36359936 heartbeat IPC: 1.26320 cumulative IPC: 1.26513 (Simulation time: 0 hr 1 min 58 sec) 
Heartbeat CPU  0 instructions:   47000001 cycles:   37151269 heartbeat IPC: 1.26369 cumulative IPC: 1.26510 (Simulation time: 0 hr 2 min 1 sec) 
Heartbeat CPU  0 instructions:   48000000 cycles:   37942682 heartbeat IPC: 1.26356 cumulative IPC: 1.26507 (Simulation time: 0 hr 2 min 3 sec) 
Heartbeat CPU  0 instructions:   49000001 cycles:   38733940 heartbeat IPC: 1.26381 cumulative IPC: 1.26504 (Simulation time: 0 hr 2 min 6 sec) 
Heartbeat CPU  0 instructions:   50000003 cycles:   39525167 heartbeat IPC: 1.26386 cumulative IPC: 1.26502 (Simulation time: 0 hr 2 min 8 sec) 
Heartbeat CPU  0 instructions:   51000001 cycles:   40316737 heartbeat IPC: 1.26331 cumulative IPC: 1.26498 (Simulation time: 0 hr 2 min 11 sec) 
Heartbeat CPU  0 instructions:   52000000 cycles:   41108249 heartbeat IPC: 1.26340 cumulative IPC: 1.26495 (Simulation time: 0 hr 2 min 13 sec) 
Heartbeat CPU  0 instructions:   53000003 cycles:   41899908 heartbeat IPC: 1.26317 cumulative IPC: 1.26492 (Simulation time: 0 hr 2 min 16 sec) 
Heartbeat CPU  0 instructions:   54000002 cycles:   42691381 heartbeat IPC: 1.26347 cumulative IPC: 1.26489 (Simulation time: 0 hr 2 min 19 sec) 
Heartbeat CPU  0 instructions:   55000001 cycles:   43482812 heartbeat IPC: 1.26353 cumulative IPC: 1.26487 (Simulation time: 0 hr 2 min 21 sec) 
Heartbeat CPU  0 instructions:   56000000 cycles:   44274086 heartbeat IPC: 1.26378 cumulative IPC: 1.26485 (Simulation time: 0 hr 2 min 24 sec) 
Heartbeat CPU  0 instructions:   57000000 cycles:   45065665 heartbeat IPC: 1.26330 cumulative IPC: 1.26482 (Simulation time: 0 hr 2 min 27 sec) 
Heartbeat CPU  0 instructions:   58000002 cycles:   45857034 heartbeat IPC: 1.26364 cumulative IPC: 1.26480 (Simulation time: 0 hr 2 min 29 sec) 
Heartbeat CPU  0 instructions:   59000000 cycles:   46648517 heartbeat IPC: 1.26345 cumulative IPC: 1.26478 (Simulation time: 0 hr 2 min 32 sec) 
Heartbeat CPU  0 instructions:   60000000 cycles:   47439900 heartbeat IPC: 1.26361 cumulative IPC: 1.26476 (Simulation time: 0 hr 2 min 34 sec) 
Heartbeat CPU  0 instructions:   61000000 cycles:   48231061 heartbeat IPC: 1.26397 cumulative IPC: 1.26475 (Simulation time: 0 hr 2 min 37 sec) 
Heartbeat CPU  0 instructions:   62000002 cycles:   49022754 heartbeat IPC: 1.26312 cumulative IPC: 1.26472 (Simulation time: 0 hr 2 min 39 sec) 
Heartbeat CPU  0 instructions:   63000000 cycles:   49814300 heartbeat IPC: 1.26335 cumulative IPC: 1.26470 (Simulation time: 0 hr 2 min 42 sec) 
Heartbeat CPU  0 instructions:   64000000 cycles:   50605692 heartbeat IPC: 1.26360 cumulative IPC: 1.26468 (Simulation time: 0 hr 2 min 44 sec) 
Heartbeat CPU  0 instructions:   65000000 cycles:   51397357 heartbeat IPC: 1.26316 cumulative IPC: 1.26466 (Simulation time: 0 hr 2 min 47 sec) 
Heartbeat CPU  0 instructions:   66000003 cycles:   52188787 heartbeat IPC: 1.26354 cumulative IPC: 1.26464 (Simulation time: 0 hr 2 min 49 sec) 
Heartbeat CPU  0 instructions:   67000000 cycles:   52980211 heartbeat IPC: 1.26354 cumulative IPC: 1.26462 (Simulation time: 0 hr 2 min 52 sec) 
Heartbeat CPU  0 instructions:   68000000 cycles:   53771486 heartbeat IPC: 1.26378 cumulative IPC: 1.26461 (Simulation time: 0 hr 2 min 54 sec) 
Heartbeat CPU  0 instructions:   69000001 cycles:   54562969 heartbeat IPC: 1.26345 cumulative IPC: 1.26459 (Simulation time: 0 hr 2 min 57 sec) 
Heartbeat CPU  0 instructions:   70000002 cycles:   55354291 heartbeat IPC: 1.26371 cumulative IPC: 1.26458 (Simulation time: 0 hr 2 min 59 sec) 
Heartbeat CPU  0 instructions:   71000001 cycles:   56145738 heartbeat IPC: 1.26351 cumulative IPC: 1.26457 (Simulation time: 0 hr 3 min 2 sec) 
Heartbeat CPU  0 instructions:   72000000 cycles:   56936974 heartbeat IPC: 1.26384 cumulative IPC: 1.26456 (Simulation time: 0 hr 3 min 4 sec) 
Heartbeat CPU  0 instructions:   73000003 cycles:   57728748 heartbeat IPC: 1.26299 cumulative IPC: 1.26453 (Simulation time: 0 hr 3 min 7 sec) 
Heartbeat CPU  0 instructions:   74000003 cycles:   58520118 heartbeat IPC: 1.26363 cumulative IPC: 1.26452 (Simulation time: 0 hr 3 min 9 sec) 
Heartbeat CPU  0 instructions:   75000001 cycles:   59311545 heartbeat IPC: 1.26354 cumulative IPC: 1.26451 (Simulation time: 0 hr 3 min 12 sec) 
Heartbeat CPU  0 instructions:   76000000 cycles:   60103162 heartbeat IPC: 1.26324 cumulative IPC: 1.26449 (Simulation time: 0 hr 3 min 15 sec) 
Heartbeat CPU  0 instructions:   77000002 cycles:   60894488 heartbeat IPC: 1.26370 cumulative IPC: 1.26448 (Simulation time: 0 hr 3 min 17 sec) 
Heartbeat CPU  0 instructions:   78000001 cycles:   61685930 heartbeat IPC: 1.26352 cumulative IPC: 1.26447 (Simulation time: 0 hr 3 min 20 sec) 
Heartbeat CPU  0 instructions:   79000000 cycles:   62477266 heartbeat IPC: 1.26368 cumulative IPC: 1.26446 (Simulation time: 0 hr 3 min 22 sec) 
Heartbeat CPU  0 instructions:   80000000 cycles:   63268796 heartbeat IPC: 1.26338 cumulative IPC: 1.26445 (Simulation time: 0 hr 3 min 25 sec) 
Heartbeat CPU  0 instructions:   81000000 cycles:   64060132 heartbeat IPC: 1.26369 cumulative IPC: 1.26444 (Simulation time: 0 hr 3 min 27 sec) 
Heartbeat CPU  0 instructions:   82000002 cycles:   64851445 heartbeat IPC: 1.26372 cumulative IPC: 1.26443 (Simulation time: 0 hr 3 min 30 sec) 
Heartbeat CPU  0 instructions:   83000000 cycles:   65642857 heartbeat IPC: 1.26356 cumulative IPC: 1.26442 (Simulation time: 0 hr 3 min 33 sec) 
Heartbeat CPU  0 instructions:   84000000 cycles:   66434273 heartbeat IPC: 1.26356 cumulative IPC: 1.26441 (Simulation time: 0 hr 3 min 35 sec) 
Heartbeat CPU  0 instructions:   85000000 cycles:   67225771 heartbeat IPC: 1.26343 cumulative IPC: 1.26440 (Simulation time: 0 hr 3 min 38 sec) 
Heartbeat CPU  0 instructions:   86000002 cycles:   68017113 heartbeat IPC: 1.26368 cumulative IPC: 1.26439 (Simulation time: 0 hr 3 min 41 sec) 
Heartbeat CPU  0 instructions:   87000000 cycles:   68808556 heartbeat IPC: 1.26351 cumulative IPC: 1.26438 (Simulation time: 0 hr 3 min 44 sec) 
Heartbeat CPU  0 instructions:   88000000 cycles:   69599777 heartbeat IPC: 1.26387 cumulative IPC: 1.26437 (Simulation time: 0 hr 3 min 46 sec) 
Heartbeat CPU  0 instructions:   89000000 cycles:   70391286 heartbeat IPC: 1.26341 cumulative IPC: 1.26436 (Simulation time: 0 hr 3 min 49 sec) 
Heartbeat CPU  0 instructions:   90000003 cycles:   71182634 heartbeat IPC: 1.26367 cumulative IPC: 1.26435 (Simulation time: 0 hr 3 min 52 sec) 
Heartbeat CPU  0 instructions:   91000000 cycles:   71973920 heartbeat IPC: 1.26376 cumulative IPC: 1.26435 (Simulation time: 0 hr 3 min 55 sec) 
Heartbeat CPU  0 instructions:   92000000 cycles:   72765350 heartbeat IPC: 1.26354 cumulative IPC: 1.26434 (Simulation time: 0 hr 3 min 57 sec) 
Heartbeat CPU  0 instructions:   93000001 cycles:   73556633 heartbeat IPC: 1.26377 cumulative IPC: 1.26433 (Simulation time: 0 hr 4 min 0 sec) 
Heartbeat CPU  0 instructions:   94000001 cycles:   74348213 heartbeat IPC: 1.26330 cumulative IPC: 1.26432 (Simulation time: 0 hr 4 min 2 sec) 
Heartbeat CPU  0 instructions:   95000000 cycles:   75139536 heartbeat IPC: 1.26371 cumulative IPC: 1.26431 (Simulation time: 0 hr 4 min 5 sec) 
Heartbeat CPU  0 instructions:   96000000 cycles:   75930878 heartbeat IPC: 1.26368 cumulative IPC: 1.26431 (Simulation time: 0 hr 4 min 8 sec) 
Heartbeat CPU  0 instructions:   97000003 cycles:   76722422 heartbeat IPC: 1.26336 cumulative IPC: 1.26430 (Simulation time: 0 hr 4 min 11 sec) 
Heartbeat CPU  0 instructions:   98000003 cycles:   77513726 heartbeat IPC: 1.26374 cumulative IPC: 1.26429 (Simulation time: 0 hr 4 min 13 sec) 
Heartbeat CPU  0 instructions:   99000003 cycles:   78305086 heartbeat IPC: 1.26365 cumulative IPC: 1.26429 (Simulation time: 0 hr 4 min 16 sec) 
Heartbeat CPU  0 instructions:  100000000 cycles:   79096380 heartbeat IPC: 1.26375 cumulative IPC: 1.26428 (Simulation time: 0 hr 4 min 19 sec) 

Warmup complete CPU  0 instructions:  100000001 cycles:   79096381 (Simulation time: 0 hr 4 min 19 sec) 

Heartbeat CPU  0 instructions:  101000001 cycles:   81285844 heartbeat IPC: 0.45673 cumulative IPC: 0.45673 (Simulation time: 0 hr 4 min 22 sec) 
Heartbeat CPU  0 instructions:  102000002 cycles:   83485496 heartbeat IPC: 0.45462 cumulative IPC: 0.45567 (Simulation time: 0 hr 4 min 26 sec) 
Heartbeat CPU  0 instructions:  103000003 cycles:   85686002 heartbeat IPC: 0.45444 cumulative IPC: 0.45526 (Simulation time: 0 hr 4 min 29 sec) 
Heartbeat CPU  0 instructions:  104000000 cycles:   87877783 heartbeat IPC: 0.45625 cumulative IPC: 0.45551 (Simulation time: 0 hr 4 min 32 sec) 
Heartbeat CPU  0 instructions:  105000001 cycles:   90081644 heartbeat IPC: 0.45375 cumulative IPC: 0.45516 (Simulation time: 0 hr 4 min 36 sec) 
Heartbeat CPU  0 instructions:  106000002 cycles:   92284466 heartbeat IPC: 0.45396 cumulative IPC: 0.45496 (Simulation time: 0 hr 4 min 39 sec) 
Heartbeat CPU  0 instructions:  107000000 cycles:   94479854 heartbeat IPC: 0.45550 cumulative IPC: 0.45503 (Simulation time: 0 hr 4 min 42 sec) 
Heartbeat CPU  0 instructions:  108000000 cycles:   96686297 heartbeat IPC: 0.45322 cumulative IPC: 0.45481 (Simulation time: 0 hr 4 min 46 sec) 
Heartbeat CPU  0 instructions:  109000000 cycles:   98884045 heartbeat IPC: 0.45501 cumulative IPC: 0.45483 (Simulation time: 0 hr 4 min 49 sec) 
Heartbeat CPU  0 instructions:  110000002 cycles:  101067495 heartbeat IPC: 0.45799 cumulative IPC: 0.45514 (Simulation time: 0 hr 4 min 52 sec) 
Heartbeat CPU  0 instructions:  111000001 cycles:  103245310 heartbeat IPC: 0.45918 cumulative IPC: 0.45551 (Simulation time: 0 hr 4 min 55 sec) 
Heartbeat CPU  0 instructions:  112000000 cycles:  105435508 heartbeat IPC: 0.45658 cumulative IPC: 0.45560 (Simulation time: 0 hr 4 min 59 sec) 
Heartbeat CPU  0 instructions:  113000000 cycles:  107627359 heartbeat IPC: 0.45624 cumulative IPC: 0.45565 (Simulation time: 0 hr 5 min 2 sec) 
Heartbeat CPU  0 instructions:  114000002 cycles:  109821196 heartbeat IPC: 0.45582 cumulative IPC: 0.45566 (Simulation time: 0 hr 5 min 5 sec) 
Heartbeat CPU  0 instructions:  115000000 cycles:  112011152 heartbeat IPC: 0.45663 cumulative IPC: 0.45572 (Simulation time: 0 hr 5 min 9 sec) 
Heartbeat CPU  0 instructions:  116000000 cycles:  114209263 heartbeat IPC: 0.45494 cumulative IPC: 0.45567 (Simulation time: 0 hr 5 min 12 sec) 
Heartbeat CPU  0 instructions:  117000001 cycles:  116404329 heartbeat IPC: 0.45557 cumulative IPC: 0.45567 (Simulation time: 0 hr 5 min 16 sec) 
Heartbeat CPU  0 instructions:  118000000 cycles:  118610141 heartbeat IPC: 0.45335 cumulative IPC: 0.45554 (Simulation time: 0 hr 5 min 19 sec) 
Heartbeat CPU  0 instructions:  119000000 cycles:  120809281 heartbeat IPC: 0.45472 cumulative IPC: 0.45549 (Simulation time: 0 hr 5 min 22 sec) 
Heartbeat CPU  0 instructions:  120000000 cycles:  123004057 heartbeat IPC: 0.45563 cumulative IPC: 0.45550 (Simulation time: 0 hr 5 min 26 sec) 
Heartbeat CPU  0 instructions:  121000003 cycles:  125197782 heartbeat IPC: 0.45585 cumulative IPC: 0.45552 (Simulation time: 0 hr 5 min 29 sec) 
Heartbeat CPU  0 instructions:  122000001 cycles:  127389458 heartbeat IPC: 0.45627 cumulative IPC: 0.45555 (Simulation time: 0 hr 5 min 32 sec) 
Heartbeat CPU  0 instructions:  123000000 cycles:  129582703 heartbeat IPC: 0.45594 cumulative IPC: 0.45557 (Simulation time: 0 hr 5 min 36 sec) 
Heartbeat CPU  0 instructions:  124000000 cycles:  131776886 heartbeat IPC: 0.45575 cumulative IPC: 0.45558 (Simulation time: 0 hr 5 min 39 sec) 
Heartbeat CPU  0 instructions:  125000001 cycles:  133963638 heartbeat IPC: 0.45730 cumulative IPC: 0.45565 (Simulation time: 0 hr 5 min 42 sec) 
Heartbeat CPU  0 instructions:  126000001 cycles:  136162963 heartbeat IPC: 0.45468 cumulative IPC: 0.45561 (Simulation time: 0 hr 5 min 46 sec) 
Heartbeat CPU  0 instructions:  127000003 cycles:  138367203 heartbeat IPC: 0.45367 cumulative IPC: 0.45554 (Simulation time: 0 hr 5 min 49 sec) 
Heartbeat CPU  0 instructions:  128000000 cycles:  140563677 heartbeat IPC: 0.45527 cumulative IPC: 0.45553 (Simulation time: 0 hr 5 min 52 sec) 
Heartbeat CPU  0 instructions:  129000003 cycles:  142767824 heartbeat IPC: 0.45369 cumulative IPC: 0.45546 (Simulation time: 0 hr 5 min 55 sec) 
Heartbeat CPU  0 instructions:  130000001 cycles:  144957193 heartbeat IPC: 0.45675 cumulative IPC: 0.45551 (Simulation time: 0 hr 5 min 59 sec) 
Heartbeat CPU  0 instructions:  131000000 cycles:  147152255 heartbeat IPC: 0.45557 cumulative IPC: 0.45551 (Simulation time: 0 hr 6 min 2 sec) 
Heartbeat CPU  0 instructions:  132000000 cycles:  149348058 heartbeat IPC: 0.45541 cumulative IPC: 0.45551 (Simulation time: 0 hr 6 min 5 sec) 
Heartbeat CPU  0 instructions:  133000000 cycles:  151534326 heartbeat IPC: 0.45740 cumulative IPC: 0.45556 (Simulation time: 0 hr 6 min 9 sec) 
Heartbeat CPU  0 instructions:  134000000 cycles:  153726505 heartbeat IPC: 0.45617 cumulative IPC: 0.45558 (Simulation time: 0 hr 6 min 12 sec) 
Heartbeat CPU  0 instructions:  135000001 cycles:  155923343 heartbeat IPC: 0.45520 cumulative IPC: 0.45557 (Simulation time: 0 hr 6 min 15 sec) 
Heartbeat CPU  0 instructions:  136000000 cycles:  158130025 heartbeat IPC: 0.45317 cumulative IPC: 0.45550 (Simulation time: 0 hr 6 min 19 sec) 
Heartbeat CPU  0 instructions:  137000000 cycles:  160331403 heartbeat IPC: 0.45426 cumulative IPC: 0.45547 (Simulation time: 0 hr 6 min 22 sec) 
Heartbeat CPU  0 instructions:  138000000 cycles:  162526254 heartbeat IPC: 0.45561 cumulative IPC: 0.45547 (Simulation time: 0 hr 6 min 25 sec) 
Heartbeat CPU  0 instructions:  139000002 cycles:  164735315 heartbeat IPC: 0.45268 cumulative IPC: 0.45540 (Simulation time: 0 hr 6 min 28 sec) 
Heartbeat CPU  0 instructions:  140000000 cycles:  166932861 heartbeat IPC: 0.45505 cumulative IPC: 0.45539 (Simulation time: 0 hr 6 min 32 sec) 
Heartbeat CPU  0 instructions:  141000002 cycles:  169129785 heartbeat IPC: 0.45518 cumulative IPC: 0.45539 (Simulation time: 0 hr 6 min 35 sec) 
Heartbeat CPU  0 instructions:  142000000 cycles:  171312954 heartbeat IPC: 0.45805 cumulative IPC: 0.45545 (Simulation time: 0 hr 6 min 38 sec) 
Heartbeat CPU  0 instructions:  143000003 cycles:  173512616 heartbeat IPC: 0.45462 cumulative IPC: 0.45543 (Simulation time: 0 hr 6 min 42 sec) 
Heartbeat CPU  0 instructions:  144000000 cycles:  175708001 heartbeat IPC: 0.45550 cumulative IPC: 0.45543 (Simulation time: 0 hr 6 min 45 sec) 
Heartbeat CPU  0 instructions:  145000003 cycles:  177901656 heartbeat IPC: 0.45586 cumulative IPC: 0.45544 (Simulation time: 0 hr 6 min 48 sec) 
Heartbeat CPU  0 instructions:  146000001 cycles:  180102686 heartbeat IPC: 0.45433 cumulative IPC: 0.45542 (Simulation time: 0 hr 6 min 51 sec) 
Heartbeat CPU  0 instructions:  147000003 cycles:  182272467 heartbeat IPC: 0.46088 cumulative IPC: 0.45553 (Simulation time: 0 hr 6 min 55 sec) 
Heartbeat CPU  0 instructions:  148000000 cycles:  184406384 heartbeat IPC: 0.46862 cumulative IPC: 0.45580 (Simulation time: 0 hr 6 min 58 sec) 
Heartbeat CPU  0 instructions:  149000003 cycles:  186524799 heartbeat IPC: 0.47205 cumulative IPC: 0.45612 (Simulation time: 0 hr 7 min 1 sec) 
Heartbeat CPU  0 instructions:  150000001 cycles:  188650511 heartbeat IPC: 0.47043 cumulative IPC: 0.45640 (Simulation time: 0 hr 7 min 5 sec) 
Heartbeat CPU  0 instructions:  151000003 cycles:  190765952 heartbeat IPC: 0.47272 cumulative IPC: 0.45670 (Simulation time: 0 hr 7 min 8 sec) 
Heartbeat CPU  0 instructions:  152000000 cycles:  192879343 heartbeat IPC: 0.47317 cumulative IPC: 0.45701 (Simulation time: 0 hr 7 min 11 sec) 
Heartbeat CPU  0 instructions:  153000003 cycles:  194999841 heartbeat IPC: 0.47159 cumulative IPC: 0.45728 (Simulation time: 0 hr 7 min 14 sec) 
Heartbeat CPU  0 instructions:  154000001 cycles:  197129337 heartbeat IPC: 0.46959 cumulative IPC: 0.45750 (Simulation time: 0 hr 7 min 18 sec) 
Heartbeat CPU  0 instructions:  155000001 cycles:  199249924 heartbeat IPC: 0.47157 cumulative IPC: 0.45775 (Simulation time: 0 hr 7 min 21 sec) 
Heartbeat CPU  0 instructions:  156000000 cycles:  201365772 heartbeat IPC: 0.47262 cumulative IPC: 0.45801 (Simulation time: 0 hr 7 min 24 sec) 
Heartbeat CPU  0 instructions:  157000001 cycles:  203490759 heartbeat IPC: 0.47059 cumulative IPC: 0.45822 (Simulation time: 0 hr 7 min 27 sec) 
Heartbeat CPU  0 instructions:  158000003 cycles:  205616807 heartbeat IPC: 0.47036 cumulative IPC: 0.45842 (Simulation time: 0 hr 7 min 31 sec) 
Heartbeat CPU  0 instructions:  159000003 cycles:  207744925 heartbeat IPC: 0.46990 cumulative IPC: 0.45861 (Simulation time: 0 hr 7 min 34 sec) 
Heartbeat CPU  0 instructions:  160000000 cycles:  209863952 heartbeat IPC: 0.47191 cumulative IPC: 0.45883 (Simulation time: 0 hr 7 min 37 sec) 
Heartbeat CPU  0 instructions:  161000002 cycles:  211986650 heartbeat IPC: 0.47110 cumulative IPC: 0.45903 (Simulation time: 0 hr 7 min 40 sec) 
Heartbeat CPU  0 instructions:  162000000 cycles:  214104625 heartbeat IPC: 0.47215 cumulative IPC: 0.45923 (Simulation time: 0 hr 7 min 44 sec) 
Heartbeat CPU  0 instructions:  163000000 cycles:  216214802 heartbeat IPC: 0.47389 cumulative IPC: 0.45946 (Simulation time: 0 hr 7 min 47 sec) 
Heartbeat CPU  0 instructions:  164000000 cycles:  218314942 heartbeat IPC: 0.47616 cumulative IPC: 0.45971 (Simulation time: 0 hr 7 min 50 sec) 
Heartbeat CPU  0 instructions:  165000002 cycles:  220431941 heartbeat IPC: 0.47237 cumulative IPC: 0.45990 (Simulation time: 0 hr 7 min 53 sec) 
Heartbeat CPU  0 instructions:  166000003 cycles:  222546821 heartbeat IPC: 0.47284 cumulative IPC: 0.46009 (Simulation time: 0 hr 7 min 57 sec) 
Heartbeat CPU  0 instructions:  167000002 cycles:  224662496 heartbeat IPC: 0.47266 cumulative IPC: 0.46027 (Simulation time: 0 hr 8 min 0 sec) 
Heartbeat CPU  0 instructions:  168000000 cycles:  226785374 heartbeat IPC: 0.47106 cumulative IPC: 0.46043 (Simulation time: 0 hr 8 min 3 sec) 
Heartbeat CPU  0 instructions:  169000001 cycles:  228911354 heartbeat IPC: 0.47037 cumulative IPC: 0.46057 (Simulation time: 0 hr 8 min 6 sec) 
Heartbeat CPU  0 instructions:  170000000 cycles:  231033709 heartbeat IPC: 0.47117 cumulative IPC: 0.46072 (Simulation time: 0 hr 8 min 10 sec) 
Heartbeat CPU  0 instructions:  171000003 cycles:  233162309 heartbeat IPC: 0.46979 cumulative IPC: 0.46084 (Simulation time: 0 hr 8 min 13 sec) 
Heartbeat CPU  0 instructions:  172000000 cycles:  235283547 heartbeat IPC: 0.47142 cumulative IPC: 0.46099 (Simulation time: 0 hr 8 min 16 sec) 
Heartbeat CPU  0 instructions:  173000000 cycles:  237401375 heartbeat IPC: 0.47218 cumulative IPC: 0.46114 (Simulation time: 0 hr 8 min 19 sec) 
Heartbeat CPU  0 instructions:  174000001 cycles:  239509545 heartbeat IPC: 0.47435 cumulative IPC: 0.46131 (Simulation time: 0 hr 8 min 23 sec) 
Heartbeat CPU  0 instructions:  175000003 cycles:  241628696 heartbeat IPC: 0.47189 cumulative IPC: 0.46145 (Simulation time: 0 hr 8 min 26 sec) 
Heartbeat CPU  0 instructions:  176000000 cycles:  243742683 heartbeat IPC: 0.47304 cumulative IPC: 0.46160 (Simulation time: 0 hr 8 min 30 sec) 
Heartbeat CPU  0 instructions:  177000003 cycles:  245866700 heartbeat IPC: 0.47081 cumulative IPC: 0.46171 (Simulation time: 0 hr 8 min 34 sec) 
Heartbeat CPU  0 instructions:  178000001 cycles:  247984461 heartbeat IPC: 0.47220 cumulative IPC: 0.46184 (Simulation time: 0 hr 8 min 37 sec) 
Heartbeat CPU  0 instructions:  179000000 cycles:  250096826 heartbeat IPC: 0.47340 cumulative IPC: 0.46199 (Simulation time: 0 hr 8 min 40 sec) 
Heartbeat CPU  0 instructions:  180000000 cycles:  252227340 heartbeat IPC: 0.46937 cumulative IPC: 0.46208 (Simulation time: 0 hr 8 min 43 sec) 
Heartbeat CPU  0 instructions:  181000000 cycles:  254340446 heartbeat IPC: 0.47324 cumulative IPC: 0.46221 (Simulation time: 0 hr 8 min 47 sec) 
Heartbeat CPU  0 instructions:  182000001 cycles:  256463817 heartbeat IPC: 0.47095 cumulative IPC: 0.46232 (Simulation time: 0 hr 8 min 50 sec) 
Heartbeat CPU  0 instructions:  183000002 cycles:  258585566 heartbeat IPC: 0.47131 cumulative IPC: 0.46242 (Simulation time: 0 hr 8 min 53 sec) 
Heartbeat CPU  0 instructions:  184000000 cycles:  260700526 heartbeat IPC: 0.47282 cumulative IPC: 0.46254 (Simulation time: 0 hr 8 min 57 sec) 
Heartbeat CPU  0 instructions:  185000001 cycles:  262812377 heartbeat IPC: 0.47352 cumulative IPC: 0.46267 (Simulation time: 0 hr 9 min 0 sec) 
Heartbeat CPU  0 instructions:  186000002 cycles:  264927075 heartbeat IPC: 0.47288 cumulative IPC: 0.46279 (Simulation time: 0 hr 9 min 3 sec) 
Heartbeat CPU  0 instructions:  187000000 cycles:  267108157 heartbeat IPC: 0.45849 cumulative IPC: 0.46274 (Simulation time: 0 hr 9 min 6 sec) 
Heartbeat CPU  0 instructions:  188000000 cycles:  269094807 heartbeat IPC: 0.50336 cumulative IPC: 0.46316 (Simulation time: 0 hr 9 min 10 sec) 
Heartbeat CPU  0 instructions:  189000002 cycles:  271124677 heartbeat IPC: 0.49264 cumulative IPC: 0.46347 (Simulation time: 0 hr 9 min 13 sec) 
Heartbeat CPU  0 instructions:  190000003 cycles:  273114580 heartbeat IPC: 0.50254 cumulative IPC: 0.46387 (Simulation time: 0 hr 9 min 16 sec) 
Heartbeat CPU  0 instructions:  191000000 cycles:  275117703 heartbeat IPC: 0.49922 cumulative IPC: 0.46424 (Simulation time: 0 hr 9 min 19 sec) 
Heartbeat CPU  0 instructions:  192000000 cycles:  277086720 heartbeat IPC: 0.50787 cumulative IPC: 0.46467 (Simulation time: 0 hr 9 min 23 sec) 
Heartbeat CPU  0 instructions:  193000001 cycles:  279085844 heartbeat IPC: 0.50022 cumulative IPC: 0.46502 (Simulation time: 0 hr 9 min 26 sec) 
Heartbeat CPU  0 instructions:  194000002 cycles:  281092437 heartbeat IPC: 0.49836 cumulative IPC: 0.46536 (Simulation time: 0 hr 9 min 29 sec) 
Heartbeat CPU  0 instructions:  195000000 cycles:  283130631 heartbeat IPC: 0.49063 cumulative IPC: 0.46561 (Simulation time: 0 hr 9 min 32 sec) 
Heartbeat CPU  0 instructions:  196000000 cycles:  285154544 heartbeat IPC: 0.49409 cumulative IPC: 0.46589 (Simulation time: 0 hr 9 min 35 sec) 
Heartbeat CPU  0 instructions:  197000000 cycles:  287136232 heartbeat IPC: 0.50462 cumulative IPC: 0.46626 (Simulation time: 0 hr 9 min 39 sec) 
Heartbeat CPU  0 instructions:  198000003 cycles:  289134565 heartbeat IPC: 0.50042 cumulative IPC: 0.46658 (Simulation time: 0 hr 9 min 42 sec) 
Heartbeat CPU  0 instructions:  199000001 cycles:  291111936 heartbeat IPC: 0.50572 cumulative IPC: 0.46695 (Simulation time: 0 hr 9 min 45 sec) 
Heartbeat CPU  0 instructions:  200000000 cycles:  293109692 heartbeat IPC: 0.50056 cumulative IPC: 0.46726 (Simulation time: 0 hr 9 min 48 sec) 
Heartbeat CPU  0 instructions:  201000003 cycles:  295108362 heartbeat IPC: 0.50033 cumulative IPC: 0.46757 (Simulation time: 0 hr 9 min 51 sec) 
Heartbeat CPU  0 instructions:  202000000 cycles:  297151414 heartbeat IPC: 0.48946 cumulative IPC: 0.46777 (Simulation time: 0 hr 9 min 55 sec) 
Heartbeat CPU  0 instructions:  203000001 cycles:  299174055 heartbeat IPC: 0.49440 cumulative IPC: 0.46802 (Simulation time: 0 hr 9 min 58 sec) 
Heartbeat CPU  0 instructions:  204000000 cycles:  301220977 heartbeat IPC: 0.48854 cumulative IPC: 0.46821 (Simulation time: 0 hr 10 min 1 sec) 
Heartbeat CPU  0 instructions:  205000000 cycles:  303269257 heartbeat IPC: 0.48821 cumulative IPC: 0.46839 (Simulation time: 0 hr 10 min 4 sec) 
Heartbeat CPU  0 instructions:  206000002 cycles:  305339760 heartbeat IPC: 0.48298 cumulative IPC: 0.46852 (Simulation time: 0 hr 10 min 8 sec) 
Heartbeat CPU  0 instructions:  207000000 cycles:  307382350 heartbeat IPC: 0.48957 cumulative IPC: 0.46871 (Simulation time: 0 hr 10 min 11 sec) 
Heartbeat CPU  0 instructions:  208000000 cycles:  309450671 heartbeat IPC: 0.48348 cumulative IPC: 0.46884 (Simulation time: 0 hr 10 min 14 sec) 
Heartbeat CPU  0 instructions:  209000003 cycles:  311451425 heartbeat IPC: 0.49981 cumulative IPC: 0.46911 (Simulation time: 0 hr 10 min 18 sec) 
Heartbeat CPU  0 instructions:  210000000 cycles:  313549139 heartbeat IPC: 0.47671 cumulative IPC: 0.46918 (Simulation time: 0 hr 10 min 21 sec) 
Heartbeat CPU  0 instructions:  211000003 cycles:  315568876 heartbeat IPC: 0.49512 cumulative IPC: 0.46940 (Simulation time: 0 hr 10 min 24 sec) 
Heartbeat CPU  0 instructions:  212000000 cycles:  317648155 heartbeat IPC: 0.48093 cumulative IPC: 0.46950 (Simulation time: 0 hr 10 min 28 sec) 
Heartbeat CPU  0 instructions:  213000003 cycles:  319676020 heartbeat IPC: 0.49313 cumulative IPC: 0.46970 (Simulation time: 0 hr 10 min 31 sec) 
Heartbeat CPU  0 instructions:  214000000 cycles:  321729648 heartbeat IPC: 0.48694 cumulative IPC: 0.46984 (Simulation time: 0 hr 10 min 34 sec) 
Heartbeat CPU  0 instructions:  215000002 cycles:  323749612 heartbeat IPC: 0.49506 cumulative IPC: 0.47005 (Simulation time: 0 hr 10 min 37 sec) 
Heartbeat CPU  0 instructions:  216000000 cycles:  325816690 heartbeat IPC: 0.48377 cumulative IPC: 0.47017 (Simulation time: 0 hr 10 min 40 sec) 
Heartbeat CPU  0 instructions:  217000001 cycles:  327835518 heartbeat IPC: 0.49534 cumulative IPC: 0.47037 (Simulation time: 0 hr 10 min 44 sec) 
Heartbeat CPU  0 instructions:  218000000 cycles:  329889707 heartbeat IPC: 0.48681 cumulative IPC: 0.47051 (Simulation time: 0 hr 10 min 47 sec) 
Heartbeat CPU  0 instructions:  219000000 cycles:  331919236 heartbeat IPC: 0.49273 cumulative IPC: 0.47069 (Simulation time: 0 hr 10 min 50 sec) 
Heartbeat CPU  0 instructions:  220000000 cycles:  333971794 heartbeat IPC: 0.48720 cumulative IPC: 0.47082 (Simulation time: 0 hr 10 min 54 sec) 
Heartbeat CPU  0 instructions:  221000000 cycles:  336001303 heartbeat IPC: 0.49273 cumulative IPC: 0.47099 (Simulation time: 0 hr 10 min 57 sec) 
Heartbeat CPU  0 instructions:  222000000 cycles:  338068320 heartbeat IPC: 0.48379 cumulative IPC: 0.47109 (Simulation time: 0 hr 11 min 0 sec) 
Heartbeat CPU  0 instructions:  223000003 cycles:  340087652 heartbeat IPC: 0.49521 cumulative IPC: 0.47128 (Simulation time: 0 hr 11 min 3 sec) 
Heartbeat CPU  0 instructions:  224000000 cycles:  342175681 heartbeat IPC: 0.47892 cumulative IPC: 0.47134 (Simulation time: 0 hr 11 min 7 sec) 
Heartbeat CPU  0 instructions:  225000001 cycles:  344199470 heartbeat IPC: 0.49412 cumulative IPC: 0.47151 (Simulation time: 0 hr 11 min 10 sec) 
Heartbeat CPU  0 instructions:  226000002 cycles:  346258557 heartbeat IPC: 0.48565 cumulative IPC: 0.47162 (Simulation time: 0 hr 11 min 13 sec) 
Heartbeat CPU  0 instructions:  227000003 cycles:  348293962 heartbeat IPC: 0.49130 cumulative IPC: 0.47177 (Simulation time: 0 hr 11 min 16 sec) 
Heartbeat CPU  0 instructions:  228000000 cycles:  350356093 heartbeat IPC: 0.48493 cumulative IPC: 0.47187 (Simulation time: 0 hr 11 min 20 sec) 
Heartbeat CPU  0 instructions:  229000000 cycles:  352351650 heartbeat IPC: 0.50111 cumulative IPC: 0.47209 (Simulation time: 0 hr 11 min 23 sec) 
Heartbeat CPU  0 instructions:  230000003 cycles:  354405389 heartbeat IPC: 0.48692 cumulative IPC: 0.47220 (Simulation time: 0 hr 11 min 26 sec) 
Heartbeat CPU  0 instructions:  231000000 cycles:  356421270 heartbeat IPC: 0.49606 cumulative IPC: 0.47237 (Simulation time: 0 hr 11 min 29 sec) 
Heartbeat CPU  0 instructions:  232000000 cycles:  358418124 heartbeat IPC: 0.50079 cumulative IPC: 0.47257 (Simulation time: 0 hr 11 min 33 sec) 
Heartbeat CPU  0 instructions:  233000003 cycles:  360484329 heartbeat IPC: 0.48398 cumulative IPC: 0.47266 (Simulation time: 0 hr 11 min 36 sec) 
Heartbeat CPU  0 instructions:  234000002 cycles:  362506306 heartbeat IPC: 0.49456 cumulative IPC: 0.47281 (Simulation time: 0 hr 11 min 39 sec) 
Heartbeat CPU  0 instructions:  235000001 cycles:  364557295 heartbeat IPC: 0.48757 cumulative IPC: 0.47292 (Simulation time: 0 hr 11 min 42 sec) 
Heartbeat CPU  0 instructions:  236000000 cycles:  366602008 heartbeat IPC: 0.48907 cumulative IPC: 0.47303 (Simulation time: 0 hr 11 min 46 sec) 
Heartbeat CPU  0 instructions:  237000002 cycles:  368632926 heartbeat IPC: 0.49239 cumulative IPC: 0.47317 (Simulation time: 0 hr 11 min 49 sec) 
Heartbeat CPU  0 instructions:  238000000 cycles:  370677103 heartbeat IPC: 0.48919 cumulative IPC: 0.47328 (Simulation time: 0 hr 11 min 52 sec) 
Heartbeat CPU  0 instructions:  239000000 cycles:  372769449 heartbeat IPC: 0.47793 cumulative IPC: 0.47332 (Simulation time: 0 hr 11 min 55 sec) 
Heartbeat CPU  0 instructions:  240000000 cycles:  374777668 heartbeat IPC: 0.49795 cumulative IPC: 0.47348 (Simulation time: 0 hr 11 min 59 sec) 
Heartbeat CPU  0 instructions:  241000002 cycles:  376840867 heartbeat IPC: 0.48469 cumulative IPC: 0.47356 (Simulation time: 0 hr 12 min 2 sec) 
Heartbeat CPU  0 instructions:  242000000 cycles:  378883737 heartbeat IPC: 0.48951 cumulative IPC: 0.47367 (Simulation time: 0 hr 12 min 5 sec) 
Heartbeat CPU  0 instructions:  243000003 cycles:  380911299 heartbeat IPC: 0.49320 cumulative IPC: 0.47380 (Simulation time: 0 hr 12 min 8 sec) 
Heartbeat CPU  0 instructions:  244000000 cycles:  382929012 heartbeat IPC: 0.49561 cumulative IPC: 0.47395 (Simulation time: 0 hr 12 min 12 sec) 
Heartbeat CPU  0 instructions:  245000002 cycles:  384944942 heartbeat IPC: 0.49605 cumulative IPC: 0.47409 (Simulation time: 0 hr 12 min 15 sec) 
Heartbeat CPU  0 instructions:  246000003 cycles:  386933993 heartbeat IPC: 0.50275 cumulative IPC: 0.47428 (Simulation time: 0 hr 12 min 18 sec) 
Heartbeat CPU  0 instructions:  247000002 cycles:  388989923 heartbeat IPC: 0.48640 cumulative IPC: 0.47436 (Simulation time: 0 hr 12 min 21 sec) 
Heartbeat CPU  0 instructions:  248000000 cycles:  390968972 heartbeat IPC: 0.50529 cumulative IPC: 0.47455 (Simulation time: 0 hr 12 min 25 sec) 
Heartbeat CPU  0 instructions:  249000002 cycles:  393068936 heartbeat IPC: 0.47620 cumulative IPC: 0.47456 (Simulation time: 0 hr 12 min 28 sec) 
Heartbeat CPU  0 instructions:  250000003 cycles:  395084776 heartbeat IPC: 0.49607 cumulative IPC: 0.47470 (Simulation time: 0 hr 12 min 31 sec) 
Heartbeat CPU  0 instructions:  251000001 cycles:  397108790 heartbeat IPC: 0.49407 cumulative IPC: 0.47482 (Simulation time: 0 hr 12 min 34 sec) 
Heartbeat CPU  0 instructions:  252000000 cycles:  399135024 heartbeat IPC: 0.49353 cumulative IPC: 0.47494 (Simulation time: 0 hr 12 min 38 sec) 
Heartbeat CPU  0 instructions:  253000000 cycles:  401239166 heartbeat IPC: 0.47525 cumulative IPC: 0.47494 (Simulation time: 0 hr 12 min 41 sec) 
Heartbeat CPU  0 instructions:  254000001 cycles:  403224937 heartbeat IPC: 0.50358 cumulative IPC: 0.47512 (Simulation time: 0 hr 12 min 44 sec) 
Heartbeat CPU  0 instructions:  255000000 cycles:  405303693 heartbeat IPC: 0.48106 cumulative IPC: 0.47516 (Simulation time: 0 hr 12 min 47 sec) 
Heartbeat CPU  0 instructions:  256000000 cycles:  407328404 heartbeat IPC: 0.49390 cumulative IPC: 0.47527 (Simulation time: 0 hr 12 min 51 sec) 
Heartbeat CPU  0 instructions:  257000003 cycles:  409334646 heartbeat IPC: 0.49845 cumulative IPC: 0.47541 (Simulation time: 0 hr 12 min 54 sec) 
Heartbeat CPU  0 instructions:  258000003 cycles:  411359762 heartbeat IPC: 0.49380 cumulative IPC: 0.47553 (Simulation time: 0 hr 12 min 57 sec) 
Heartbeat CPU  0 instructions:  259000002 cycles:  413396796 heartbeat IPC: 0.49091 cumulative IPC: 0.47562 (Simulation time: 0 hr 13 min 0 sec) 
Heartbeat CPU  0 instructions:  260000000 cycles:  415416246 heartbeat IPC: 0.49518 cumulative IPC: 0.47574 (Simulation time: 0 hr 13 min 4 sec) 
Heartbeat CPU  0 instructions:  261000000 cycles:  417496873 heartbeat IPC: 0.48062 cumulative IPC: 0.47577 (Simulation time: 0 hr 13 min 7 sec) 
Heartbeat CPU  0 instructions:  262000001 cycles:  419519405 heartbeat IPC: 0.49443 cumulative IPC: 0.47588 (Simulation time: 0 hr 13 min 10 sec) 
Heartbeat CPU  0 instructions:  263000002 cycles:  421556435 heartbeat IPC: 0.49091 cumulative IPC: 0.47597 (Simulation time: 0 hr 13 min 14 sec) 
Heartbeat CPU  0 instructions:  264000000 cycles:  423618682 heartbeat IPC: 0.48491 cumulative IPC: 0.47602 (Simulation time: 0 hr 13 min 17 sec) 
Heartbeat CPU  0 instructions:  265000003 cycles:  425634209 heartbeat IPC: 0.49615 cumulative IPC: 0.47614 (Simulation time: 0 hr 13 min 20 sec) 
Heartbeat CPU  0 instructions:  266000002 cycles:  427671817 heartbeat IPC: 0.49077 cumulative IPC: 0.47622 (Simulation time: 0 hr 13 min 23 sec) 
Heartbeat CPU  0 instructions:  267000003 cycles:  429753369 heartbeat IPC: 0.48041 cumulative IPC: 0.47625 (Simulation time: 0 hr 13 min 27 sec) 
Heartbeat CPU  0 instructions:  268000000 cycles:  431781345 heartbeat IPC: 0.49310 cumulative IPC: 0.47635 (Simulation time: 0 hr 13 min 30 sec) 
Heartbeat CPU  0 instructions:  269000002 cycles:  433801387 heartbeat IPC: 0.49504 cumulative IPC: 0.47645 (Simulation time: 0 hr 13 min 33 sec) 
Heartbeat CPU  0 instructions:  270000001 cycles:  435859591 heartbeat IPC: 0.48586 cumulative IPC: 0.47651 (Simulation time: 0 hr 13 min 36 sec) 
Heartbeat CPU  0 instructions:  271000000 cycles:  437870589 heartbeat IPC: 0.49727 cumulative IPC: 0.47662 (Simulation time: 0 hr 13 min 40 sec) 
Heartbeat CPU  0 instructions:  272000000 cycles:  439922605 heartbeat IPC: 0.48733 cumulative IPC: 0.47668 (Simulation time: 0 hr 13 min 43 sec) 
Heartbeat CPU  0 instructions:  273000003 cycles:  441976897 heartbeat IPC: 0.48679 cumulative IPC: 0.47674 (Simulation time: 0 hr 13 min 46 sec) 
Heartbeat CPU  0 instructions:  274000000 cycles:  444001800 heartbeat IPC: 0.49385 cumulative IPC: 0.47684 (Simulation time: 0 hr 13 min 49 sec) 
Heartbeat CPU  0 instructions:  275000002 cycles:  446025980 heartbeat IPC: 0.49403 cumulative IPC: 0.47693 (Simulation time: 0 hr 13 min 53 sec) 
Heartbeat CPU  0 instructions:  276000000 cycles:  448068115 heartbeat IPC: 0.48968 cumulative IPC: 0.47700 (Simulation time: 0 hr 13 min 56 sec) 
Heartbeat CPU  0 instructions:  277000001 cycles:  450092110 heartbeat IPC: 0.49407 cumulative IPC: 0.47709 (Simulation time: 0 hr 13 min 59 sec) 
Heartbeat CPU  0 instructions:  278000003 cycles:  452150086 heartbeat IPC: 0.48592 cumulative IPC: 0.47714 (Simulation time: 0 hr 14 min 2 sec) 
Heartbeat CPU  0 instructions:  279000002 cycles:  454144717 heartbeat IPC: 0.50135 cumulative IPC: 0.47727 (Simulation time: 0 hr 14 min 6 sec) 
Heartbeat CPU  0 instructions:  280000000 cycles:  456198560 heartbeat IPC: 0.48689 cumulative IPC: 0.47732 (Simulation time: 0 hr 14 min 9 sec) 
Heartbeat CPU  0 instructions:  281000001 cycles:  458246376 heartbeat IPC: 0.48833 cumulative IPC: 0.47738 (Simulation time: 0 hr 14 min 12 sec) 
Heartbeat CPU  0 instructions:  282000002 cycles:  460237563 heartbeat IPC: 0.50221 cumulative IPC: 0.47751 (Simulation time: 0 hr 14 min 15 sec) 
Heartbeat CPU  0 instructions:  283000001 cycles:  462241331 heartbeat IPC: 0.49906 cumulative IPC: 0.47763 (Simulation time: 0 hr 14 min 19 sec) 
Heartbeat CPU  0 instructions:  284000000 cycles:  464301504 heartbeat IPC: 0.48540 cumulative IPC: 0.47767 (Simulation time: 0 hr 14 min 22 sec) 
Heartbeat CPU  0 instructions:  285000001 cycles:  466279848 heartbeat IPC: 0.50547 cumulative IPC: 0.47781 (Simulation time: 0 hr 14 min 25 sec) 
Heartbeat CPU  0 instructions:  286000002 cycles:  468330745 heartbeat IPC: 0.48759 cumulative IPC: 0.47786 (Simulation time: 0 hr 14 min 28 sec) 
Heartbeat CPU  0 instructions:  287000000 cycles:  470347986 heartbeat IPC: 0.49573 cumulative IPC: 0.47795 (Simulation time: 0 hr 14 min 32 sec) 
Heartbeat CPU  0 instructions:  288000000 cycles:  472368764 heartbeat IPC: 0.49486 cumulative IPC: 0.47804 (Simulation time: 0 hr 14 min 35 sec) 
Heartbeat CPU  0 instructions:  289000003 cycles:  474370665 heartbeat IPC: 0.49953 cumulative IPC: 0.47815 (Simulation time: 0 hr 14 min 38 sec) 
Heartbeat CPU  0 instructions:  290000000 cycles:  476429144 heartbeat IPC: 0.48579 cumulative IPC: 0.47819 (Simulation time: 0 hr 14 min 41 sec) 
Heartbeat CPU  0 instructions:  291000000 cycles:  478404979 heartbeat IPC: 0.50612 cumulative IPC: 0.47833 (Simulation time: 0 hr 14 min 45 sec) 
Heartbeat CPU  0 instructions:  292000000 cycles:  480500281 heartbeat IPC: 0.47726 cumulative IPC: 0.47832 (Simulation time: 0 hr 14 min 48 sec) 
Heartbeat CPU  0 instructions:  293000002 cycles:  482520809 heartbeat IPC: 0.49492 cumulative IPC: 0.47840 (Simulation time: 0 hr 14 min 51 sec) 
Heartbeat CPU  0 instructions:  294000000 cycles:  484533707 heartbeat IPC: 0.49680 cumulative IPC: 0.47850 (Simulation time: 0 hr 14 min 54 sec) 
Heartbeat CPU  0 instructions:  295000001 cycles:  486562132 heartbeat IPC: 0.49299 cumulative IPC: 0.47857 (Simulation time: 0 hr 14 min 58 sec) 
Heartbeat CPU  0 instructions:  296000000 cycles:  488583622 heartbeat IPC: 0.49468 cumulative IPC: 0.47865 (Simulation time: 0 hr 15 min 1 sec) 
Heartbeat CPU  0 instructions:  297000003 cycles:  490594611 heartbeat IPC: 0.49727 cumulative IPC: 0.47874 (Simulation time: 0 hr 15 min 4 sec) 
Heartbeat CPU  0 instructions:  298000000 cycles:  492634023 heartbeat IPC: 0.49034 cumulative IPC: 0.47880 (Simulation time: 0 hr 15 min 7 sec) 
Heartbeat CPU  0 instructions:  299000001 cycles:  494659483 heartbeat IPC: 0.49372 cumulative IPC: 0.47887 (Simulation time: 0 hr 15 min 11 sec) 
Heartbeat CPU  0 instructions:  300000000 cycles:  496664529 heartbeat IPC: 0.49874 cumulative IPC: 0.47896 (Simulation time: 0 hr 15 min 14 sec) 
Heartbeat CPU  0 instructions:  301000002 cycles:  498734424 heartbeat IPC: 0.48312 cumulative IPC: 0.47898 (Simulation time: 0 hr 15 min 17 sec) 
Heartbeat CPU  0 instructions:  302000001 cycles:  500741335 heartbeat IPC: 0.49828 cumulative IPC: 0.47908 (Simulation time: 0 hr 15 min 21 sec) 
Heartbeat CPU  0 instructions:  303000002 cycles:  502781282 heartbeat IPC: 0.49021 cumulative IPC: 0.47913 (Simulation time: 0 hr 15 min 24 sec) 
Heartbeat CPU  0 instructions:  304000000 cycles:  504814307 heartbeat IPC: 0.49188 cumulative IPC: 0.47919 (Simulation time: 0 hr 15 min 27 sec) 
Heartbeat CPU  0 instructions:  305000001 cycles:  506826342 heartbeat IPC: 0.49701 cumulative IPC: 0.47927 (Simulation time: 0 hr 15 min 30 sec) 
Heartbeat CPU  0 instructions:  306000000 cycles:  508838522 heartbeat IPC: 0.49697 cumulative IPC: 0.47936 (Simulation time: 0 hr 15 min 33 sec) 
Heartbeat CPU  0 instructions:  307000000 cycles:  510864117 heartbeat IPC: 0.49368 cumulative IPC: 0.47942 (Simulation time: 0 hr 15 min 37 sec) 
Heartbeat CPU  0 instructions:  308000000 cycles:  512757848 heartbeat IPC: 0.52806 cumulative IPC: 0.47964 (Simulation time: 0 hr 15 min 40 sec) 
Heartbeat CPU  0 instructions:  309000002 cycles:  514652266 heartbeat IPC: 0.52787 cumulative IPC: 0.47985 (Simulation time: 0 hr 15 min 43 sec) 
Heartbeat CPU  0 instructions:  310000000 cycles:  516499944 heartbeat IPC: 0.54122 cumulative IPC: 0.48011 (Simulation time: 0 hr 15 min 46 sec) 
Heartbeat CPU  0 instructions:  311000002 cycles:  518534998 heartbeat IPC: 0.49139 cumulative IPC: 0.48016 (Simulation time: 0 hr 15 min 49 sec) 
Heartbeat CPU  0 instructions:  312000000 cycles:  520605735 heartbeat IPC: 0.48292 cumulative IPC: 0.48017 (Simulation time: 0 hr 15 min 52 sec) 
Heartbeat CPU  0 instructions:  313000003 cycles:  522571920 heartbeat IPC: 0.50860 cumulative IPC: 0.48030 (Simulation time: 0 hr 15 min 55 sec) 
Heartbeat CPU  0 instructions:  314000000 cycles:  524616275 heartbeat IPC: 0.48915 cumulative IPC: 0.48034 (Simulation time: 0 hr 15 min 59 sec) 
Heartbeat CPU  0 instructions:  315000003 cycles:  526609454 heartbeat IPC: 0.50171 cumulative IPC: 0.48043 (Simulation time: 0 hr 16 min 2 sec) 
Heartbeat CPU  0 instructions:  316000000 cycles:  528598589 heartbeat IPC: 0.50273 cumulative IPC: 0.48053 (Simulation time: 0 hr 16 min 5 sec) 
Heartbeat CPU  0 instructions:  317000001 cycles:  530574052 heartbeat IPC: 0.50621 cumulative IPC: 0.48064 (Simulation time: 0 hr 16 min 9 sec) 
Heartbeat CPU  0 instructions:  318000000 cycles:  532566142 heartbeat IPC: 0.50198 cumulative IPC: 0.48074 (Simulation time: 0 hr 16 min 12 sec) 
Heartbeat CPU  0 instructions:  319000000 cycles:  534589234 heartbeat IPC: 0.49429 cumulative IPC: 0.48080 (Simulation time: 0 hr 16 min 15 sec) 
Heartbeat CPU  0 instructions:  320000000 cycles:  536603066 heartbeat IPC: 0.49657 cumulative IPC: 0.48087 (Simulation time: 0 hr 16 min 18 sec) 
Heartbeat CPU  0 instructions:  321000000 cycles:  538567880 heartbeat IPC: 0.50895 cumulative IPC: 0.48099 (Simulation time: 0 hr 16 min 21 sec) 
Heartbeat CPU  0 instructions:  322000001 cycles:  540571302 heartbeat IPC: 0.49915 cumulative IPC: 0.48107 (Simulation time: 0 hr 16 min 25 sec) 
Heartbeat CPU  0 instructions:  323000003 cycles:  542566204 heartbeat IPC: 0.50128 cumulative IPC: 0.48115 (Simulation time: 0 hr 16 min 28 sec) 
Heartbeat CPU  0 instructions:  324000000 cycles:  544630471 heartbeat IPC: 0.48443 cumulative IPC: 0.48117 (Simulation time: 0 hr 16 min 31 sec) 
Heartbeat CPU  0 instructions:  325000003 cycles:  546640912 heartbeat IPC: 0.49740 cumulative IPC: 0.48124 (Simulation time: 0 hr 16 min 34 sec) 
Heartbeat CPU  0 instructions:  326000000 cycles:  548677019 heartbeat IPC: 0.49113 cumulative IPC: 0.48128 (Simulation time: 0 hr 16 min 38 sec) 
Heartbeat CPU  0 instructions:  327000001 cycles:  550733956 heartbeat IPC: 0.48616 cumulative IPC: 0.48130 (Simulation time: 0 hr 16 min 41 sec) 
Heartbeat CPU  0 instructions:  328000000 cycles:  552725965 heartbeat IPC: 0.50201 cumulative IPC: 0.48139 (Simulation time: 0 hr 16 min 44 sec) 
Heartbeat CPU  0 instructions:  329000002 cycles:  554738353 heartbeat IPC: 0.49692 cumulative IPC: 0.48145 (Simulation time: 0 hr 16 min 47 sec) 
Heartbeat CPU  0 instructions:  330000003 cycles:  556754016 heartbeat IPC: 0.49612 cumulative IPC: 0.48152 (Simulation time: 0 hr 16 min 51 sec) 
Heartbeat CPU  0 instructions:  331000003 cycles:  558745029 heartbeat IPC: 0.50226 cumulative IPC: 0.48160 (Simulation time: 0 hr 16 min 54 sec) 
Heartbeat CPU  0 instructions:  332000000 cycles:  560770508 heartbeat IPC: 0.49371 cumulative IPC: 0.48165 (Simulation time: 0 hr 16 min 57 sec) 
Heartbeat CPU  0 instructions:  333000003 cycles:  562757331 heartbeat IPC: 0.50332 cumulative IPC: 0.48174 (Simulation time: 0 hr 17 min 0 sec) 
Heartbeat CPU  0 instructions:  334000000 cycles:  564813661 heartbeat IPC: 0.48630 cumulative IPC: 0.48176 (Simulation time: 0 hr 17 min 4 sec) 
Heartbeat CPU  0 instructions:  335000002 cycles:  566803644 heartbeat IPC: 0.50252 cumulative IPC: 0.48185 (Simulation time: 0 hr 17 min 7 sec) 
Heartbeat CPU  0 instructions:  336000000 cycles:  568822605 heartbeat IPC: 0.49530 cumulative IPC: 0.48190 (Simulation time: 0 hr 17 min 10 sec) 
Heartbeat CPU  0 instructions:  337000000 cycles:  570853670 heartbeat IPC: 0.49235 cumulative IPC: 0.48195 (Simulation time: 0 hr 17 min 13 sec) 
Heartbeat CPU  0 instructions:  338000002 cycles:  572862993 heartbeat IPC: 0.49768 cumulative IPC: 0.48201 (Simulation time: 0 hr 17 min 17 sec) 
Heartbeat CPU  0 instructions:  339000001 cycles:  574919127 heartbeat IPC: 0.48635 cumulative IPC: 0.48203 (Simulation time: 0 hr 17 min 20 sec) 
Heartbeat CPU  0 instructions:  340000000 cycles:  576891183 heartbeat IPC: 0.50708 cumulative IPC: 0.48213 (Simulation time: 0 hr 17 min 23 sec) 
Heartbeat CPU  0 instructions:  341000002 cycles:  578931634 heartbeat IPC: 0.49009 cumulative IPC: 0.48216 (Simulation time: 0 hr 17 min 26 sec) 
Heartbeat CPU  0 instructions:  342000003 cycles:  580958334 heartbeat IPC: 0.49341 cumulative IPC: 0.48220 (Simulation time: 0 hr 17 min 30 sec) 
Heartbeat CPU  0 instructions:  343000000 cycles:  582948961 heartbeat IPC: 0.50235 cumulative IPC: 0.48228 (Simulation time: 0 hr 17 min 33 sec) 
Heartbeat CPU  0 instructions:  344000000 cycles:  584971822 heartbeat IPC: 0.49435 cumulative IPC: 0.48233 (Simulation time: 0 hr 17 min 36 sec) 
Heartbeat CPU  0 instructions:  345000003 cycles:  587001775 heartbeat IPC: 0.49262 cumulative IPC: 0.48237 (Simulation time: 0 hr 17 min 39 sec) 
Heartbeat CPU  0 instructions:  346000000 cycles:  588989230 heartbeat IPC: 0.50315 cumulative IPC: 0.48245 (Simulation time: 0 hr 17 min 43 sec) 
Heartbeat CPU  0 instructions:  347000003 cycles:  591004107 heartbeat IPC: 0.49631 cumulative IPC: 0.48251 (Simulation time: 0 hr 17 min 46 sec) 
Heartbeat CPU  0 instructions:  348000000 cycles:  592980105 heartbeat IPC: 0.50607 cumulative IPC: 0.48260 (Simulation time: 0 hr 17 min 49 sec) 
Heartbeat CPU  0 instructions:  349000000 cycles:  595023171 heartbeat IPC: 0.48946 cumulative IPC: 0.48263 (Simulation time: 0 hr 17 min 52 sec) 
Heartbeat CPU  0 instructions:  350000003 cycles:  597008666 heartbeat IPC: 0.50365 cumulative IPC: 0.48271 (Simulation time: 0 hr 17 min 56 sec) 
Heartbeat CPU  0 instructions:  351000001 cycles:  599055051 heartbeat IPC: 0.48867 cumulative IPC: 0.48273 (Simulation time: 0 hr 17 min 59 sec) 
Heartbeat CPU  0 instructions:  352000000 cycles:  601078385 heartbeat IPC: 0.49423 cumulative IPC: 0.48278 (Simulation time: 0 hr 18 min 2 sec) 
Heartbeat CPU  0 instructions:  353000003 cycles:  603071841 heartbeat IPC: 0.50164 cumulative IPC: 0.48285 (Simulation time: 0 hr 18 min 5 sec) 
Heartbeat CPU  0 instructions:  354000000 cycles:  605098903 heartbeat IPC: 0.49332 cumulative IPC: 0.48289 (Simulation time: 0 hr 18 min 9 sec) 
Heartbeat CPU  0 instructions:  355000000 cycles:  607113029 heartbeat IPC: 0.49649 cumulative IPC: 0.48294 (Simulation time: 0 hr 18 min 12 sec) 
Heartbeat CPU  0 instructions:  356000000 cycles:  609138185 heartbeat IPC: 0.49379 cumulative IPC: 0.48298 (Simulation time: 0 hr 18 min 15 sec) 
Heartbeat CPU  0 instructions:  357000002 cycles:  611172295 heartbeat IPC: 0.49162 cumulative IPC: 0.48301 (Simulation time: 0 hr 18 min 18 sec) 
Heartbeat CPU  0 instructions:  358000003 cycles:  613188930 heartbeat IPC: 0.49588 cumulative IPC: 0.48306 (Simulation time: 0 hr 18 min 22 sec) 
Heartbeat CPU  0 instructions:  359000000 cycles:  615235704 heartbeat IPC: 0.48857 cumulative IPC: 0.48308 (Simulation time: 0 hr 18 min 25 sec) 
Heartbeat CPU  0 instructions:  360000000 cycles:  617273579 heartbeat IPC: 0.49071 cumulative IPC: 0.48311 (Simulation time: 0 hr 18 min 28 sec) 
Heartbeat CPU  0 instructions:  361000002 cycles:  619290985 heartbeat IPC: 0.49569 cumulative IPC: 0.48316 (Simulation time: 0 hr 18 min 31 sec) 
Heartbeat CPU  0 instructions:  362000003 cycles:  621313679 heartbeat IPC: 0.49439 cumulative IPC: 0.48320 (Simulation time: 0 hr 18 min 35 sec) 
Heartbeat CPU  0 instructions:  363000003 cycles:  623329032 heartbeat IPC: 0.49619 cumulative IPC: 0.48325 (Simulation time: 0 hr 18 min 38 sec) 
Heartbeat CPU  0 instructions:  364000000 cycles:  625358177 heartbeat IPC: 0.49282 cumulative IPC: 0.48328 (Simulation time: 0 hr 18 min 41 sec) 
Heartbeat CPU  0 instructions:  365000003 cycles:  627331266 heartbeat IPC: 0.50682 cumulative IPC: 0.48337 (Simulation time: 0 hr 18 min 44 sec) 
Heartbeat CPU  0 instructions:  366000000 cycles:  629352932 heartbeat IPC: 0.49464 cumulative IPC: 0.48341 (Simulation time: 0 hr 18 min 48 sec) 
Heartbeat CPU  0 instructions:  367000001 cycles:  631377003 heartbeat IPC: 0.49405 cumulative IPC: 0.48345 (Simulation time: 0 hr 18 min 51 sec) 
Heartbeat CPU  0 instructions:  368000000 cycles:  633369939 heartbeat IPC: 0.50177 cumulative IPC: 0.48352 (Simulation time: 0 hr 18 min 54 sec) 
Heartbeat CPU  0 instructions:  369000003 cycles:  635407260 heartbeat IPC: 0.49084 cumulative IPC: 0.48354 (Simulation time: 0 hr 18 min 58 sec) 
Heartbeat CPU  0 instructions:  370000000 cycles:  637420729 heartbeat IPC: 0.49665 cumulative IPC: 0.48359 (Simulation time: 0 hr 19 min 1 sec) 
Heartbeat CPU  0 instructions:  371000001 cycles:  639446642 heartbeat IPC: 0.49361 cumulative IPC: 0.48363 (Simulation time: 0 hr 19 min 4 sec) 
Heartbeat CPU  0 instructions:  372000000 cycles:  641485243 heartbeat IPC: 0.49053 cumulative IPC: 0.48365 (Simulation time: 0 hr 19 min 7 sec) 
Heartbeat CPU  0 instructions:  373000000 cycles:  643478343 heartbeat IPC: 0.50173 cumulative IPC: 0.48371 (Simulation time: 0 hr 19 min 11 sec) 
Heartbeat CPU  0 instructions:  374000003 cycles:  645497010 heartbeat IPC: 0.49538 cumulative IPC: 0.48376 (Simulation time: 0 hr 19 min 14 sec) 
Heartbeat CPU  0 instructions:  375000002 cycles:  647479716 heartbeat IPC: 0.50436 cumulative IPC: 0.48383 (Simulation time: 0 hr 19 min 17 sec) 
Heartbeat CPU  0 instructions:  376000000 cycles:  649532370 heartbeat IPC: 0.48717 cumulative IPC: 0.48384 (Simulation time: 0 hr 19 min 20 sec) 
Heartbeat CPU  0 instructions:  377000003 cycles:  651511580 heartbeat IPC: 0.50525 cumulative IPC: 0.48391 (Simulation time: 0 hr 19 min 24 sec) 
Heartbeat CPU  0 instructions:  378000000 cycles:  653514697 heartbeat IPC: 0.49922 cumulative IPC: 0.48397 (Simulation time: 0 hr 19 min 27 sec) 
Heartbeat CPU  0 instructions:  379000001 cycles:  655550846 heartbeat IPC: 0.49112 cumulative IPC: 0.48399 (Simulation time: 0 hr 19 min 30 sec) 
Heartbeat CPU  0 instructions:  380000000 cycles:  657514999 heartbeat IPC: 0.50912 cumulative IPC: 0.48408 (Simulation time: 0 hr 19 min 33 sec) 
Heartbeat CPU  0 instructions:  381000002 cycles:  659541392 heartbeat IPC: 0.49349 cumulative IPC: 0.48411 (Simulation time: 0 hr 19 min 36 sec) 
Heartbeat CPU  0 instructions:  382000003 cycles:  661568923 heartbeat IPC: 0.49321 cumulative IPC: 0.48414 (Simulation time: 0 hr 19 min 40 sec) 
Heartbeat CPU  0 instructions:  383000000 cycles:  663559209 heartbeat IPC: 0.50244 cumulative IPC: 0.48421 (Simulation time: 0 hr 19 min 43 sec) 
Heartbeat CPU  0 instructions:  384000000 cycles:  665572906 heartbeat IPC: 0.49660 cumulative IPC: 0.48425 (Simulation time: 0 hr 19 min 46 sec) 
Heartbeat CPU  0 instructions:  385000003 cycles:  667570150 heartbeat IPC: 0.50069 cumulative IPC: 0.48430 (Simulation time: 0 hr 19 min 50 sec) 
Heartbeat CPU  0 instructions:  386000000 cycles:  669633419 heartbeat IPC: 0.48467 cumulative IPC: 0.48430 (Simulation time: 0 hr 19 min 53 sec) 
Heartbeat CPU  0 instructions:  387000002 cycles:  671635238 heartbeat IPC: 0.49955 cumulative IPC: 0.48436 (Simulation time: 0 hr 19 min 56 sec) 
Heartbeat CPU  0 instructions:  388000000 cycles:  673680785 heartbeat IPC: 0.48887 cumulative IPC: 0.48437 (Simulation time: 0 hr 19 min 59 sec) 
Heartbeat CPU  0 instructions:  389000000 cycles:  675717692 heartbeat IPC: 0.49094 cumulative IPC: 0.48439 (Simulation time: 0 hr 20 min 3 sec) 
Heartbeat CPU  0 instructions:  390000000 cycles:  677712318 heartbeat IPC: 0.50135 cumulative IPC: 0.48445 (Simulation time: 0 hr 20 min 6 sec) 
Heartbeat CPU  0 instructions:  391000003 cycles:  679738086 heartbeat IPC: 0.49364 cumulative IPC: 0.48448 (Simulation time: 0 hr 20 min 9 sec) 
Heartbeat CPU  0 instructions:  392000000 cycles:  681704803 heartbeat IPC: 0.50846 cumulative IPC: 0.48456 (Simulation time: 0 hr 20 min 13 sec) 
Heartbeat CPU  0 instructions:  393000000 cycles:  683714629 heartbeat IPC: 0.49756 cumulative IPC: 0.48460 (Simulation time: 0 hr 20 min 16 sec) 
Heartbeat CPU  0 instructions:  394000000 cycles:  685775788 heartbeat IPC: 0.48516 cumulative IPC: 0.48461 (Simulation time: 0 hr 20 min 19 sec) 
Heartbeat CPU  0 instructions:  395000000 cycles:  687784890 heartbeat IPC: 0.49773 cumulative IPC: 0.48465 (Simulation time: 0 hr 20 min 22 sec) 
Heartbeat CPU  0 instructions:  396000000 cycles:  689819599 heartbeat IPC: 0.49147 cumulative IPC: 0.48467 (Simulation time: 0 hr 20 min 26 sec) 
Heartbeat CPU  0 instructions:  397000000 cycles:  691834939 heartbeat IPC: 0.49619 cumulative IPC: 0.48471 (Simulation time: 0 hr 20 min 29 sec) 
Heartbeat CPU  0 instructions:  398000001 cycles:  693851499 heartbeat IPC: 0.49589 cumulative IPC: 0.48475 (Simulation time: 0 hr 20 min 32 sec) 
Heartbeat CPU  0 instructions:  399000002 cycles:  695902837 heartbeat IPC: 0.48749 cumulative IPC: 0.48475 (Simulation time: 0 hr 20 min 35 sec) 
Heartbeat CPU  0 instructions:  400000000 cycles:  697916021 heartbeat IPC: 0.49672 cumulative IPC: 0.48479 (Simulation time: 0 hr 20 min 38 sec) 
Heartbeat CPU  0 instructions:  401000002 cycles:  699938236 heartbeat IPC: 0.49451 cumulative IPC: 0.48483 (Simulation time: 0 hr 20 min 42 sec) 
Heartbeat CPU  0 instructions:  402000003 cycles:  701920556 heartbeat IPC: 0.50446 cumulative IPC: 0.48489 (Simulation time: 0 hr 20 min 45 sec) 
Heartbeat CPU  0 instructions:  403000000 cycles:  703968452 heartbeat IPC: 0.48830 cumulative IPC: 0.48490 (Simulation time: 0 hr 20 min 48 sec) 
Heartbeat CPU  0 instructions:  404000000 cycles:  705987148 heartbeat IPC: 0.49537 cumulative IPC: 0.48493 (Simulation time: 0 hr 20 min 51 sec) 
Heartbeat CPU  0 instructions:  405000003 cycles:  707992350 heartbeat IPC: 0.49870 cumulative IPC: 0.48498 (Simulation time: 0 hr 20 min 55 sec) 
Heartbeat CPU  0 instructions:  406000000 cycles:  710026045 heartbeat IPC: 0.49171 cumulative IPC: 0.48500 (Simulation time: 0 hr 20 min 58 sec) 
Heartbeat CPU  0 instructions:  407000001 cycles:  712033092 heartbeat IPC: 0.49824 cumulative IPC: 0.48504 (Simulation time: 0 hr 21 min 1 sec) 
Heartbeat CPU  0 instructions:  408000000 cycles:  714026564 heartbeat IPC: 0.50164 cumulative IPC: 0.48509 (Simulation time: 0 hr 21 min 4 sec) 
Heartbeat CPU  0 instructions:  409000002 cycles:  716056721 heartbeat IPC: 0.49257 cumulative IPC: 0.48512 (Simulation time: 0 hr 21 min 8 sec) 
Heartbeat CPU  0 instructions:  410000003 cycles:  718050569 heartbeat IPC: 0.50154 cumulative IPC: 0.48517 (Simulation time: 0 hr 21 min 11 sec) 
Heartbeat CPU  0 instructions:  411000001 cycles:  720081206 heartbeat IPC: 0.49246 cumulative IPC: 0.48519 (Simulation time: 0 hr 21 min 14 sec) 
Heartbeat CPU  0 instructions:  412000000 cycles:  722071983 heartbeat IPC: 0.50232 cumulative IPC: 0.48524 (Simulation time: 0 hr 21 min 18 sec) 
Heartbeat CPU  0 instructions:  413000002 cycles:  724121813 heartbeat IPC: 0.48785 cumulative IPC: 0.48525 (Simulation time: 0 hr 21 min 21 sec) 
Heartbeat CPU  0 instructions:  414000001 cycles:  726179806 heartbeat IPC: 0.48591 cumulative IPC: 0.48525 (Simulation time: 0 hr 21 min 24 sec) 
Heartbeat CPU  0 instructions:  415000002 cycles:  728201136 heartbeat IPC: 0.49472 cumulative IPC: 0.48528 (Simulation time: 0 hr 21 min 27 sec) 
Heartbeat CPU  0 instructions:  416000000 cycles:  730233862 heartbeat IPC: 0.49195 cumulative IPC: 0.48530 (Simulation time: 0 hr 21 min 31 sec) 
Heartbeat CPU  0 instructions:  417000003 cycles:  732229581 heartbeat IPC: 0.50107 cumulative IPC: 0.48535 (Simulation time: 0 hr 21 min 34 sec) 
Heartbeat CPU  0 instructions:  418000000 cycles:  734273756 heartbeat IPC: 0.48919 cumulative IPC: 0.48536 (Simulation time: 0 hr 21 min 37 sec) 
Heartbeat CPU  0 instructions:  419000001 cycles:  736295383 heartbeat IPC: 0.49465 cumulative IPC: 0.48539 (Simulation time: 0 hr 21 min 40 sec) 
Heartbeat CPU  0 instructions:  420000000 cycles:  738270311 heartbeat IPC: 0.50635 cumulative IPC: 0.48546 (Simulation time: 0 hr 21 min 44 sec) 
Heartbeat CPU  0 instructions:  421000000 cycles:  740292711 heartbeat IPC: 0.49446 cumulative IPC: 0.48548 (Simulation time: 0 hr 21 min 47 sec) 
Heartbeat CPU  0 instructions:  422000001 cycles:  742264920 heartbeat IPC: 0.50705 cumulative IPC: 0.48555 (Simulation time: 0 hr 21 min 50 sec) 
Heartbeat CPU  0 instructions:  423000001 cycles:  744263068 heartbeat IPC: 0.50046 cumulative IPC: 0.48559 (Simulation time: 0 hr 21 min 53 sec) 
Heartbeat CPU  0 instructions:  424000000 cycles:  746272671 heartbeat IPC: 0.49761 cumulative IPC: 0.48563 (Simulation time: 0 hr 21 min 57 sec) 
Heartbeat CPU  0 instructions:  425000001 cycles:  748303971 heartbeat IPC: 0.49230 cumulative IPC: 0.48565 (Simulation time: 0 hr 22 min 0 sec) 
Heartbeat CPU  0 instructions:  426000002 cycles:  750322732 heartbeat IPC: 0.49535 cumulative IPC: 0.48568 (Simulation time: 0 hr 22 min 3 sec) 
Heartbeat CPU  0 instructions:  427000000 cycles:  752329985 heartbeat IPC: 0.49819 cumulative IPC: 0.48572 (Simulation time: 0 hr 22 min 6 sec) 
Heartbeat CPU  0 instructions:  428000000 cycles:  754367094 heartbeat IPC: 0.49089 cumulative IPC: 0.48573 (Simulation time: 0 hr 22 min 10 sec) 
Heartbeat CPU  0 instructions:  429000000 cycles:  756398667 heartbeat IPC: 0.49223 cumulative IPC: 0.48575 (Simulation time: 0 hr 22 min 13 sec) 
Heartbeat CPU  0 instructions:  430000000 cycles:  758388026 heartbeat IPC: 0.50267 cumulative IPC: 0.48580 (Simulation time: 0 hr 22 min 16 sec) 
Heartbeat CPU  0 instructions:  431000000 cycles:  760494428 heartbeat IPC: 0.47474 cumulative IPC: 0.48577 (Simulation time: 0 hr 22 min 19 sec) 
Heartbeat CPU  0 instructions:  432000000 cycles:  762718791 heartbeat IPC: 0.44957 cumulative IPC: 0.48565 (Simulation time: 0 hr 22 min 23 sec) 
Heartbeat CPU  0 instructions:  433000001 cycles:  764953910 heartbeat IPC: 0.44740 cumulative IPC: 0.48552 (Simulation time: 0 hr 22 min 26 sec) 
Heartbeat CPU  0 instructions:  434000000 cycles:  767186098 heartbeat IPC: 0.44799 cumulative IPC: 0.48540 (Simulation time: 0 hr 22 min 30 sec) 
Heartbeat CPU  0 instructions:  435000003 cycles:  769374364 heartbeat IPC: 0.45698 cumulative IPC: 0.48531 (Simulation time: 0 hr 22 min 33 sec) 
Heartbeat CPU  0 instructions:  436000000 cycles:  771557518 heartbeat IPC: 0.45805 cumulative IPC: 0.48523 (Simulation time: 0 hr 22 min 36 sec) 
Heartbeat CPU  0 instructions:  437000002 cycles:  773635281 heartbeat IPC: 0.48129 cumulative IPC: 0.48521 (Simulation time: 0 hr 22 min 39 sec) 
Heartbeat CPU  0 instructions:  438000001 cycles:  775716484 heartbeat IPC: 0.48049 cumulative IPC: 0.48520 (Simulation time: 0 hr 22 min 43 sec) 
Heartbeat CPU  0 instructions:  439000002 cycles:  777788329 heartbeat IPC: 0.48266 cumulative IPC: 0.48519 (Simulation time: 0 hr 22 min 46 sec) 
Heartbeat CPU  0 instructions:  440000000 cycles:  779876680 heartbeat IPC: 0.47885 cumulative IPC: 0.48517 (Simulation time: 0 hr 22 min 49 sec) 
Heartbeat CPU  0 instructions:  441000001 cycles:  782054186 heartbeat IPC: 0.45924 cumulative IPC: 0.48509 (Simulation time: 0 hr 22 min 52 sec) 
Heartbeat CPU  0 instructions:  442000000 cycles:  784171080 heartbeat IPC: 0.47239 cumulative IPC: 0.48505 (Simulation time: 0 hr 22 min 56 sec) 
Heartbeat CPU  0 instructions:  443000000 cycles:  786295495 heartbeat IPC: 0.47072 cumulative IPC: 0.48501 (Simulation time: 0 hr 22 min 59 sec) 
Heartbeat CPU  0 instructions:  444000000 cycles:  788463344 heartbeat IPC: 0.46129 cumulative IPC: 0.48494 (Simulation time: 0 hr 23 min 2 sec) 
Heartbeat CPU  0 instructions:  445000002 cycles:  790635115 heartbeat IPC: 0.46045 cumulative IPC: 0.48486 (Simulation time: 0 hr 23 min 6 sec) 
Heartbeat CPU  0 instructions:  446000001 cycles:  792828982 heartbeat IPC: 0.45582 cumulative IPC: 0.48478 (Simulation time: 0 hr 23 min 9 sec) 
Heartbeat CPU  0 instructions:  447000003 cycles:  794972963 heartbeat IPC: 0.46642 cumulative IPC: 0.48472 (Simulation time: 0 hr 23 min 12 sec) 
Heartbeat CPU  0 instructions:  448000000 cycles:  797206709 heartbeat IPC: 0.44768 cumulative IPC: 0.48461 (Simulation time: 0 hr 23 min 16 sec) 
Heartbeat CPU  0 instructions:  449000000 cycles:  799398752 heartbeat IPC: 0.45620 cumulative IPC: 0.48452 (Simulation time: 0 hr 23 min 19 sec) 
Heartbeat CPU  0 instructions:  450000001 cycles:  801556402 heartbeat IPC: 0.46347 cumulative IPC: 0.48446 (Simulation time: 0 hr 23 min 22 sec) 
Heartbeat CPU  0 instructions:  451000000 cycles:  803740300 heartbeat IPC: 0.45790 cumulative IPC: 0.48438 (Simulation time: 0 hr 23 min 25 sec) 
Heartbeat CPU  0 instructions:  452000000 cycles:  805937620 heartbeat IPC: 0.45510 cumulative IPC: 0.48429 (Simulation time: 0 hr 23 min 29 sec) 
Heartbeat CPU  0 instructions:  453000001 cycles:  808134293 heartbeat IPC: 0.45523 cumulative IPC: 0.48420 (Simulation time: 0 hr 23 min 32 sec) 
Heartbeat CPU  0 instructions:  454000002 cycles:  810305002 heartbeat IPC: 0.46068 cumulative IPC: 0.48413 (Simulation time: 0 hr 23 min 35 sec) 
Heartbeat CPU  0 instructions:  455000000 cycles:  812481953 heartbeat IPC: 0.45936 cumulative IPC: 0.48406 (Simulation time: 0 hr 23 min 39 sec) 
Heartbeat CPU  0 instructions:  456000000 cycles:  814706053 heartbeat IPC: 0.44962 cumulative IPC: 0.48395 (Simulation time: 0 hr 23 min 42 sec) 
Heartbeat CPU  0 instructions:  457000002 cycles:  816877475 heartbeat IPC: 0.46053 cumulative IPC: 0.48388 (Simulation time: 0 hr 23 min 45 sec) 
Heartbeat CPU  0 instructions:  458000003 cycles:  819073641 heartbeat IPC: 0.45534 cumulative IPC: 0.48380 (Simulation time: 0 hr 23 min 49 sec) 
Heartbeat CPU  0 instructions:  459000001 cycles:  821234796 heartbeat IPC: 0.46271 cumulative IPC: 0.48374 (Simulation time: 0 hr 23 min 52 sec) 
Heartbeat CPU  0 instructions:  460000000 cycles:  823413648 heartbeat IPC: 0.45896 cumulative IPC: 0.48366 (Simulation time: 0 hr 23 min 55 sec) 
Heartbeat CPU  0 instructions:  461000002 cycles:  825607183 heartbeat IPC: 0.45589 cumulative IPC: 0.48358 (Simulation time: 0 hr 23 min 59 sec) 
Heartbeat CPU  0 instructions:  462000003 cycles:  827786048 heartbeat IPC: 0.45896 cumulative IPC: 0.48351 (Simulation time: 0 hr 24 min 2 sec) 
Heartbeat CPU  0 instructions:  463000002 cycles:  829976043 heartbeat IPC: 0.45662 cumulative IPC: 0.48343 (Simulation time: 0 hr 24 min 5 sec) 
Heartbeat CPU  0 instructions:  464000000 cycles:  832137429 heartbeat IPC: 0.46267 cumulative IPC: 0.48337 (Simulation time: 0 hr 24 min 9 sec) 
Heartbeat CPU  0 instructions:  465000001 cycles:  834326771 heartbeat IPC: 0.45676 cumulative IPC: 0.48330 (Simulation time: 0 hr 24 min 12 sec) 
Heartbeat CPU  0 instructions:  466000000 cycles:  836535026 heartbeat IPC: 0.45285 cumulative IPC: 0.48321 (Simulation time: 0 hr 24 min 15 sec) 
Heartbeat CPU  0 instructions:  467000001 cycles:  838701918 heartbeat IPC: 0.46149 cumulative IPC: 0.48315 (Simulation time: 0 hr 24 min 19 sec) 
Heartbeat CPU  0 instructions:  468000000 cycles:  840904938 heartbeat IPC: 0.45392 cumulative IPC: 0.48306 (Simulation time: 0 hr 24 min 22 sec) 
Heartbeat CPU  0 instructions:  469000002 cycles:  843079121 heartbeat IPC: 0.45994 cumulative IPC: 0.48300 (Simulation time: 0 hr 24 min 25 sec) 
Heartbeat CPU  0 instructions:  470000001 cycles:  845286336 heartbeat IPC: 0.45306 cumulative IPC: 0.48291 (Simulation time: 0 hr 24 min 29 sec) 
Heartbeat CPU  0 instructions:  471000002 cycles:  847492016 heartbeat IPC: 0.45338 cumulative IPC: 0.48282 (Simulation time: 0 hr 24 min 32 sec) 
Heartbeat CPU  0 instructions:  472000000 cycles:  849636252 heartbeat IPC: 0.46637 cumulative IPC: 0.48278 (Simulation time: 0 hr 24 min 35 sec) 
Heartbeat CPU  0 instructions:  473000001 cycles:  851832600 heartbeat IPC: 0.45530 cumulative IPC: 0.48270 (Simulation time: 0 hr 24 min 39 sec) 
Heartbeat CPU  0 instructions:  474000000 cycles:  854030027 heartbeat IPC: 0.45508 cumulative IPC: 0.48262 (Simulation time: 0 hr 24 min 42 sec) 
Heartbeat CPU  0 instructions:  475000001 cycles:  856202269 heartbeat IPC: 0.46035 cumulative IPC: 0.48256 (Simulation time: 0 hr 24 min 45 sec) 
Heartbeat CPU  0 instructions:  476000000 cycles:  858390894 heartbeat IPC: 0.45691 cumulative IPC: 0.48249 (Simulation time: 0 hr 24 min 49 sec) 
Heartbeat CPU  0 instructions:  477000003 cycles:  860538223 heartbeat IPC: 0.46570 cumulative IPC: 0.48244 (Simulation time: 0 hr 24 min 52 sec) 
Heartbeat CPU  0 instructions:  478000002 cycles:  862781354 heartbeat IPC: 0.44580 cumulative IPC: 0.48234 (Simulation time: 0 hr 24 min 55 sec) 
Heartbeat CPU  0 instructions:  479000003 cycles:  864943349 heartbeat IPC: 0.46254 cumulative IPC: 0.48228 (Simulation time: 0 hr 24 min 59 sec) 
Heartbeat CPU  0 instructions:  480000000 cycles:  867117205 heartbeat IPC: 0.46001 cumulative IPC: 0.48222 (Simulation time: 0 hr 25 min 2 sec) 
Heartbeat CPU  0 instructions:  481000000 cycles:  869299205 heartbeat IPC: 0.45830 cumulative IPC: 0.48215 (Simulation time: 0 hr 25 min 5 sec) 
Heartbeat CPU  0 instructions:  482000003 cycles:  871469340 heartbeat IPC: 0.46080 cumulative IPC: 0.48210 (Simulation time: 0 hr 25 min 9 sec) 
Heartbeat CPU  0 instructions:  483000000 cycles:  873654382 heartbeat IPC: 0.45766 cumulative IPC: 0.48203 (Simulation time: 0 hr 25 min 12 sec) 
Heartbeat CPU  0 instructions:  484000000 cycles:  875842383 heartbeat IPC: 0.45704 cumulative IPC: 0.48196 (Simulation time: 0 hr 25 min 15 sec) 
Heartbeat CPU  0 instructions:  485000001 cycles:  878039628 heartbeat IPC: 0.45512 cumulative IPC: 0.48189 (Simulation time: 0 hr 25 min 19 sec) 
Heartbeat CPU  0 instructions:  486000000 cycles:  880229096 heartbeat IPC: 0.45673 cumulative IPC: 0.48182 (Simulation time: 0 hr 25 min 22 sec) 
Heartbeat CPU  0 instructions:  487000001 cycles:  882398737 heartbeat IPC: 0.46091 cumulative IPC: 0.48176 (Simulation time: 0 hr 25 min 25 sec) 
Heartbeat CPU  0 instructions:  488000000 cycles:  884606257 heartbeat IPC: 0.45300 cumulative IPC: 0.48168 (Simulation time: 0 hr 25 min 29 sec) 
Heartbeat CPU  0 instructions:  489000002 cycles:  886829086 heartbeat IPC: 0.44988 cumulative IPC: 0.48159 (Simulation time: 0 hr 25 min 32 sec) 
Heartbeat CPU  0 instructions:  490000001 cycles:  889030271 heartbeat IPC: 0.45430 cumulative IPC: 0.48152 (Simulation time: 0 hr 25 min 35 sec) 
Heartbeat CPU  0 instructions:  491000001 cycles:  891222365 heartbeat IPC: 0.45618 cumulative IPC: 0.48145 (Simulation time: 0 hr 25 min 39 sec) 
Heartbeat CPU  0 instructions:  492000000 cycles:  893423082 heartbeat IPC: 0.45440 cumulative IPC: 0.48138 (Simulation time: 0 hr 25 min 42 sec) 
Heartbeat CPU  0 instructions:  493000001 cycles:  895625257 heartbeat IPC: 0.45410 cumulative IPC: 0.48131 (Simulation time: 0 hr 25 min 45 sec) 
Heartbeat CPU  0 instructions:  494000001 cycles:  897805430 heartbeat IPC: 0.45868 cumulative IPC: 0.48125 (Simulation time: 0 hr 25 min 48 sec) 
Heartbeat CPU  0 instructions:  495000000 cycles:  899982442 heartbeat IPC: 0.45934 cumulative IPC: 0.48119 (Simulation time: 0 hr 25 min 52 sec) 
Heartbeat CPU  0 instructions:  496000000 cycles:  902196528 heartbeat IPC: 0.45165 cumulative IPC: 0.48111 (Simulation time: 0 hr 25 min 55 sec) 
Heartbeat CPU  0 instructions:  497000002 cycles:  904361091 heartbeat IPC: 0.46199 cumulative IPC: 0.48106 (Simulation time: 0 hr 25 min 58 sec) 
Heartbeat CPU  0 instructions:  498000000 cycles:  906546812 heartbeat IPC: 0.45751 cumulative IPC: 0.48100 (Simulation time: 0 hr 26 min 2 sec) 
Heartbeat CPU  0 instructions:  499000001 cycles:  908747594 heartbeat IPC: 0.45438 cumulative IPC: 0.48092 (Simulation time: 0 hr 26 min 5 sec) 
Heartbeat CPU  0 instructions:  500000000 cycles:  910961179 heartbeat IPC: 0.45176 cumulative IPC: 0.48085 (Simulation time: 0 hr 26 min 8 sec) 
Heartbeat CPU  0 instructions:  501000000 cycles:  913154301 heartbeat IPC: 0.45597 cumulative IPC: 0.48078 (Simulation time: 0 hr 26 min 12 sec) 
Heartbeat CPU  0 instructions:  502000003 cycles:  915310132 heartbeat IPC: 0.46386 cumulative IPC: 0.48074 (Simulation time: 0 hr 26 min 15 sec) 
Heartbeat CPU  0 instructions:  503000003 cycles:  917505496 heartbeat IPC: 0.45551 cumulative IPC: 0.48067 (Simulation time: 0 hr 26 min 18 sec) 
Heartbeat CPU  0 instructions:  504000000 cycles:  919717281 heartbeat IPC: 0.45212 cumulative IPC: 0.48060 (Simulation time: 0 hr 26 min 22 sec) 
Heartbeat CPU  0 instructions:  505000001 cycles:  921919329 heartbeat IPC: 0.45412 cumulative IPC: 0.48053 (Simulation time: 0 hr 26 min 25 sec) 
Heartbeat CPU  0 instructions:  506000001 cycles:  924089354 heartbeat IPC: 0.46082 cumulative IPC: 0.48048 (Simulation time: 0 hr 26 min 28 sec) 
Heartbeat CPU  0 instructions:  507000003 cycles:  926247126 heartbeat IPC: 0.46344 cumulative IPC: 0.48043 (Simulation time: 0 hr 26 min 32 sec) 
Heartbeat CPU  0 instructions:  508000000 cycles:  928433597 heartbeat IPC: 0.45736 cumulative IPC: 0.48037 (Simulation time: 0 hr 26 min 35 sec) 
Heartbeat CPU  0 instructions:  509000000 cycles:  930615781 heartbeat IPC: 0.45826 cumulative IPC: 0.48032 (Simulation time: 0 hr 26 min 38 sec) 
Heartbeat CPU  0 instructions:  510000002 cycles:  932823043 heartbeat IPC: 0.45305 cumulative IPC: 0.48025 (Simulation time: 0 hr 26 min 42 sec) 
Heartbeat CPU  0 instructions:  511000003 cycles:  935037386 heartbeat IPC: 0.45160 cumulative IPC: 0.48017 (Simulation time: 0 hr 26 min 45 sec) 
Heartbeat CPU  0 instructions:  512000000 cycles:  937208417 heartbeat IPC: 0.46061 cumulative IPC: 0.48012 (Simulation time: 0 hr 26 min 48 sec) 
Heartbeat CPU  0 instructions:  513000001 cycles:  939376840 heartbeat IPC: 0.46117 cumulative IPC: 0.48008 (Simulation time: 0 hr 26 min 52 sec) 
Heartbeat CPU  0 instructions:  514000003 cycles:  941585084 heartbeat IPC: 0.45285 cumulative IPC: 0.48001 (Simulation time: 0 hr 26 min 55 sec) 
Heartbeat CPU  0 instructions:  515000002 cycles:  943801614 heartbeat IPC: 0.45116 cumulative IPC: 0.47993 (Simulation time: 0 hr 26 min 58 sec) 
Heartbeat CPU  0 instructions:  516000000 cycles:  945980088 heartbeat IPC: 0.45904 cumulative IPC: 0.47988 (Simulation time: 0 hr 27 min 2 sec) 
Heartbeat CPU  0 instructions:  517000001 cycles:  948164265 heartbeat IPC: 0.45784 cumulative IPC: 0.47982 (Simulation time: 0 hr 27 min 5 sec) 
Heartbeat CPU  0 instructions:  518000000 cycles:  950378097 heartbeat IPC: 0.45171 cumulative IPC: 0.47975 (Simulation time: 0 hr 27 min 8 sec) 
Heartbeat CPU  0 instructions:  519000003 cycles:  952572279 heartbeat IPC: 0.45575 cumulative IPC: 0.47969 (Simulation time: 0 hr 27 min 12 sec) 
Heartbeat CPU  0 instructions:  520000000 cycles:  954746731 heartbeat IPC: 0.45988 cumulative IPC: 0.47964 (Simulation time: 0 hr 27 min 15 sec) 
Heartbeat CPU  0 instructions:  521000000 cycles:  956946119 heartbeat IPC: 0.45467 cumulative IPC: 0.47958 (Simulation time: 0 hr 27 min 18 sec) 
Heartbeat CPU  0 instructions:  522000003 cycles:  959156306 heartbeat IPC: 0.45245 cumulative IPC: 0.47951 (Simulation time: 0 hr 27 min 22 sec) 
Heartbeat CPU  0 instructions:  523000002 cycles:  961385963 heartbeat IPC: 0.44850 cumulative IPC: 0.47943 (Simulation time: 0 hr 27 min 25 sec) 
Heartbeat CPU  0 instructions:  524000000 cycles:  963557271 heartbeat IPC: 0.46055 cumulative IPC: 0.47939 (Simulation time: 0 hr 27 min 28 sec) 
Heartbeat CPU  0 instructions:  525000001 cycles:  965753027 heartbeat IPC: 0.45542 cumulative IPC: 0.47933 (Simulation time: 0 hr 27 min 32 sec) 
Heartbeat CPU  0 instructions:  526000000 cycles:  967990108 heartbeat IPC: 0.44701 cumulative IPC: 0.47925 (Simulation time: 0 hr 27 min 35 sec) 
Heartbeat CPU  0 instructions:  527000002 cycles:  970177485 heartbeat IPC: 0.45717 cumulative IPC: 0.47919 (Simulation time: 0 hr 27 min 38 sec) 
Heartbeat CPU  0 instructions:  528000000 cycles:  972355624 heartbeat IPC: 0.45911 cumulative IPC: 0.47914 (Simulation time: 0 hr 27 min 42 sec) 
Heartbeat CPU  0 instructions:  529000002 cycles:  974532973 heartbeat IPC: 0.45928 cumulative IPC: 0.47910 (Simulation time: 0 hr 27 min 45 sec) 
Heartbeat CPU  0 instructions:  530000002 cycles:  976713782 heartbeat IPC: 0.45855 cumulative IPC: 0.47905 (Simulation time: 0 hr 27 min 48 sec) 
Heartbeat CPU  0 instructions:  531000002 cycles:  978948255 heartbeat IPC: 0.44753 cumulative IPC: 0.47897 (Simulation time: 0 hr 27 min 52 sec) 
Heartbeat CPU  0 instructions:  532000000 cycles:  981183995 heartbeat IPC: 0.44728 cumulative IPC: 0.47889 (Simulation time: 0 hr 27 min 55 sec) 
Heartbeat CPU  0 instructions:  533000000 cycles:  983422633 heartbeat IPC: 0.44670 cumulative IPC: 0.47881 (Simulation time: 0 hr 27 min 58 sec) 
Heartbeat CPU  0 instructions:  534000003 cycles:  985665542 heartbeat IPC: 0.44585 cumulative IPC: 0.47873 (Simulation time: 0 hr 28 min 2 sec) 
Heartbeat CPU  0 instructions:  535000003 cycles:  987895110 heartbeat IPC: 0.44852 cumulative IPC: 0.47865 (Simulation time: 0 hr 28 min 5 sec) 
Heartbeat CPU  0 instructions:  536000000 cycles:  990134443 heartbeat IPC: 0.44656 cumulative IPC: 0.47857 (Simulation time: 0 hr 28 min 8 sec) 
Heartbeat CPU  0 instructions:  537000003 cycles:  992349090 heartbeat IPC: 0.45154 cumulative IPC: 0.47851 (Simulation time: 0 hr 28 min 12 sec) 
Heartbeat CPU  0 instructions:  538000000 cycles:  994601659 heartbeat IPC: 0.44394 cumulative IPC: 0.47842 (Simulation time: 0 hr 28 min 15 sec) 
Heartbeat CPU  0 instructions:  539000000 cycles:  996768822 heartbeat IPC: 0.46143 cumulative IPC: 0.47838 (Simulation time: 0 hr 28 min 18 sec) 
Heartbeat CPU  0 instructions:  540000000 cycles:  998786518 heartbeat IPC: 0.49561 cumulative IPC: 0.47842 (Simulation time: 0 hr 28 min 21 sec) 
Heartbeat CPU  0 instructions:  541000000 cycles: 1000805868 heartbeat IPC: 0.49521 cumulative IPC: 0.47846 (Simulation time: 0 hr 28 min 24 sec) 
Heartbeat CPU  0 instructions:  542000000 cycles: 1002824554 heartbeat IPC: 0.49537 cumulative IPC: 0.47850 (Simulation time: 0 hr 28 min 27 sec) 
Heartbeat CPU  0 instructions:  543000002 cycles: 1005035970 heartbeat IPC: 0.45220 cumulative IPC: 0.47843 (Simulation time: 0 hr 28 min 31 sec) 
Heartbeat CPU  0 instructions:  544000000 cycles: 1007242300 heartbeat IPC: 0.45324 cumulative IPC: 0.47837 (Simulation time: 0 hr 28 min 34 sec) 
Heartbeat CPU  0 instructions:  545000002 cycles: 1009423461 heartbeat IPC: 0.45847 cumulative IPC: 0.47833 (Simulation time: 0 hr 28 min 37 sec) 
Heartbeat CPU  0 instructions:  546000002 cycles: 1011579708 heartbeat IPC: 0.46377 cumulative IPC: 0.47829 (Simulation time: 0 hr 28 min 41 sec) 
Heartbeat CPU  0 instructions:  547000000 cycles: 1013747625 heartbeat IPC: 0.46127 cumulative IPC: 0.47825 (Simulation time: 0 hr 28 min 44 sec) 
Heartbeat CPU  0 instructions:  548000000 cycles: 1015854894 heartbeat IPC: 0.47455 cumulative IPC: 0.47824 (Simulation time: 0 hr 28 min 47 sec) 
Heartbeat CPU  0 instructions:  549000002 cycles: 1017991178 heartbeat IPC: 0.46810 cumulative IPC: 0.47822 (Simulation time: 0 hr 28 min 50 sec) 
Heartbeat CPU  0 instructions:  550000000 cycles: 1020137315 heartbeat IPC: 0.46595 cumulative IPC: 0.47819 (Simulation time: 0 hr 28 min 54 sec) 
Heartbeat CPU  0 instructions:  551000000 cycles: 1022252063 heartbeat IPC: 0.47287 cumulative IPC: 0.47818 (Simulation time: 0 hr 28 min 57 sec) 
Heartbeat CPU  0 instructions:  552000000 cycles: 1024397123 heartbeat IPC: 0.46619 cumulative IPC: 0.47815 (Simulation time: 0 hr 29 min 0 sec) 
Heartbeat CPU  0 instructions:  553000003 cycles: 1026536913 heartbeat IPC: 0.46734 cumulative IPC: 0.47813 (Simulation time: 0 hr 29 min 4 sec) 
Heartbeat CPU  0 instructions:  554000002 cycles: 1028695592 heartbeat IPC: 0.46325 cumulative IPC: 0.47810 (Simulation time: 0 hr 29 min 7 sec) 
Heartbeat CPU  0 instructions:  555000000 cycles: 1030787369 heartbeat IPC: 0.47806 cumulative IPC: 0.47810 (Simulation time: 0 hr 29 min 10 sec) 
Heartbeat CPU  0 instructions:  556000000 cycles: 1032913666 heartbeat IPC: 0.47030 cumulative IPC: 0.47808 (Simulation time: 0 hr 29 min 13 sec) 
Heartbeat CPU  0 instructions:  557000001 cycles: 1035088347 heartbeat IPC: 0.45984 cumulative IPC: 0.47804 (Simulation time: 0 hr 29 min 17 sec) 
Heartbeat CPU  0 instructions:  558000003 cycles: 1037260742 heartbeat IPC: 0.46032 cumulative IPC: 0.47800 (Simulation time: 0 hr 29 min 20 sec) 
Heartbeat CPU  0 instructions:  559000000 cycles: 1039420566 heartbeat IPC: 0.46300 cumulative IPC: 0.47796 (Simulation time: 0 hr 29 min 23 sec) 
Heartbeat CPU  0 instructions:  560000000 cycles: 1041578657 heartbeat IPC: 0.46337 cumulative IPC: 0.47793 (Simulation time: 0 hr 29 min 27 sec) 
Heartbeat CPU  0 instructions:  561000000 cycles: 1043762838 heartbeat IPC: 0.45784 cumulative IPC: 0.47789 (Simulation time: 0 hr 29 min 30 sec) 
Heartbeat CPU  0 instructions:  562000003 cycles: 1045925470 heartbeat IPC: 0.46240 cumulative IPC: 0.47785 (Simulation time: 0 hr 29 min 33 sec) 
Heartbeat CPU  0 instructions:  563000003 cycles: 1048078499 heartbeat IPC: 0.46446 cumulative IPC: 0.47782 (Simulation time: 0 hr 29 min 36 sec) 
Heartbeat CPU  0 instructions:  564000000 cycles: 1050231657 heartbeat IPC: 0.46443 cumulative IPC: 0.47779 (Simulation time: 0 hr 29 min 40 sec) 
Heartbeat CPU  0 instructions:  565000000 cycles: 1052388447 heartbeat IPC: 0.46365 cumulative IPC: 0.47776 (Simulation time: 0 hr 29 min 43 sec) 
Heartbeat CPU  0 instructions:  566000001 cycles: 1054570838 heartbeat IPC: 0.45821 cumulative IPC: 0.47772 (Simulation time: 0 hr 29 min 46 sec) 
Heartbeat CPU  0 instructions:  567000000 cycles: 1056723562 heartbeat IPC: 0.46453 cumulative IPC: 0.47769 (Simulation time: 0 hr 29 min 50 sec) 
Heartbeat CPU  0 instructions:  568000000 cycles: 1058898543 heartbeat IPC: 0.45977 cumulative IPC: 0.47765 (Simulation time: 0 hr 29 min 53 sec) 
Heartbeat CPU  0 instructions:  569000003 cycles: 1061045212 heartbeat IPC: 0.46584 cumulative IPC: 0.47762 (Simulation time: 0 hr 29 min 56 sec) 
Heartbeat CPU  0 instructions:  570000000 cycles: 1063198830 heartbeat IPC: 0.46433 cumulative IPC: 0.47759 (Simulation time: 0 hr 30 min 0 sec) 
Heartbeat CPU  0 instructions:  571000000 cycles: 1065347935 heartbeat IPC: 0.46531 cumulative IPC: 0.47757 (Simulation time: 0 hr 30 min 3 sec) 
Heartbeat CPU  0 instructions:  572000000 cycles: 1067517854 heartbeat IPC: 0.46085 cumulative IPC: 0.47753 (Simulation time: 0 hr 30 min 6 sec) 
Heartbeat CPU  0 instructions:  573000000 cycles: 1069658882 heartbeat IPC: 0.46707 cumulative IPC: 0.47751 (Simulation time: 0 hr 30 min 9 sec) 
Heartbeat CPU  0 instructions:  574000001 cycles: 1071819489 heartbeat IPC: 0.46283 cumulative IPC: 0.47747 (Simulation time: 0 hr 30 min 13 sec) 
Heartbeat CPU  0 instructions:  575000001 cycles: 1073987795 heartbeat IPC: 0.46119 cumulative IPC: 0.47744 (Simulation time: 0 hr 30 min 16 sec) 
Heartbeat CPU  0 instructions:  576000000 cycles: 1076142315 heartbeat IPC: 0.46414 cumulative IPC: 0.47741 (Simulation time: 0 hr 30 min 19 sec) 
Heartbeat CPU  0 instructions:  577000001 cycles: 1078308315 heartbeat IPC: 0.46168 cumulative IPC: 0.47738 (Simulation time: 0 hr 30 min 23 sec) 
Heartbeat CPU  0 instructions:  578000001 cycles: 1080482077 heartbeat IPC: 0.46003 cumulative IPC: 0.47734 (Simulation time: 0 hr 30 min 26 sec) 
Heartbeat CPU  0 instructions:  579000000 cycles: 1082643516 heartbeat IPC: 0.46265 cumulative IPC: 0.47731 (Simulation time: 0 hr 30 min 29 sec) 
Heartbeat CPU  0 instructions:  580000000 cycles: 1084804001 heartbeat IPC: 0.46286 cumulative IPC: 0.47728 (Simulation time: 0 hr 30 min 33 sec) 
Heartbeat CPU  0 instructions:  581000002 cycles: 1086944838 heartbeat IPC: 0.46711 cumulative IPC: 0.47725 (Simulation time: 0 hr 30 min 36 sec) 
Heartbeat CPU  0 instructions:  582000000 cycles: 1089119269 heartbeat IPC: 0.45989 cumulative IPC: 0.47722 (Simulation time: 0 hr 30 min 39 sec) 
Heartbeat CPU  0 instructions:  583000000 cycles: 1091277283 heartbeat IPC: 0.46339 cumulative IPC: 0.47719 (Simulation time: 0 hr 30 min 43 sec) 
Heartbeat CPU  0 instructions:  584000000 cycles: 1093431188 heartbeat IPC: 0.46427 cumulative IPC: 0.47716 (Simulation time: 0 hr 30 min 46 sec) 
Heartbeat CPU  0 instructions:  585000001 cycles: 1095598580 heartbeat IPC: 0.46138 cumulative IPC: 0.47713 (Simulation time: 0 hr 30 min 49 sec) 
Heartbeat CPU  0 instructions:  586000000 cycles: 1097734107 heartbeat IPC: 0.46827 cumulative IPC: 0.47711 (Simulation time: 0 hr 30 min 53 sec) 
Heartbeat CPU  0 instructions:  587000001 cycles: 1099911672 heartbeat IPC: 0.45923 cumulative IPC: 0.47707 (Simulation time: 0 hr 30 min 56 sec) 
Heartbeat CPU  0 instructions:  588000000 cycles: 1102095567 heartbeat IPC: 0.45790 cumulative IPC: 0.47703 (Simulation time: 0 hr 30 min 59 sec) 
Heartbeat CPU  0 instructions:  589000000 cycles: 1104268672 heartbeat IPC: 0.46017 cumulative IPC: 0.47699 (Simulation time: 0 hr 31 min 2 sec) 
Heartbeat CPU  0 instructions:  590000003 cycles: 1106479300 heartbeat IPC: 0.45236 cumulative IPC: 0.47694 (Simulation time: 0 hr 31 min 6 sec) 
Heartbeat CPU  0 instructions:  591000002 cycles: 1108624607 heartbeat IPC: 0.46613 cumulative IPC: 0.47692 (Simulation time: 0 hr 31 min 9 sec) 
Heartbeat CPU  0 instructions:  592000000 cycles: 1110798554 heartbeat IPC: 0.45999 cumulative IPC: 0.47688 (Simulation time: 0 hr 31 min 12 sec) 
Heartbeat CPU  0 instructions:  593000001 cycles: 1112994441 heartbeat IPC: 0.45540 cumulative IPC: 0.47684 (Simulation time: 0 hr 31 min 16 sec) 
Heartbeat CPU  0 instructions:  594000000 cycles: 1115158492 heartbeat IPC: 0.46210 cumulative IPC: 0.47681 (Simulation time: 0 hr 31 min 19 sec) 
Heartbeat CPU  0 instructions:  595000000 cycles: 1117316568 heartbeat IPC: 0.46338 cumulative IPC: 0.47678 (Simulation time: 0 hr 31 min 22 sec) 
Heartbeat CPU  0 instructions:  596000000 cycles: 1119492925 heartbeat IPC: 0.45948 cumulative IPC: 0.47674 (Simulation time: 0 hr 31 min 26 sec) 
Heartbeat CPU  0 instructions:  597000003 cycles: 1121659314 heartbeat IPC: 0.46160 cumulative IPC: 0.47671 (Simulation time: 0 hr 31 min 29 sec) 
Heartbeat CPU  0 instructions:  598000002 cycles: 1123816569 heartbeat IPC: 0.46355 cumulative IPC: 0.47668 (Simulation time: 0 hr 31 min 32 sec) 
Heartbeat CPU  0 instructions:  599000003 cycles: 1125985411 heartbeat IPC: 0.46108 cumulative IPC: 0.47665 (Simulation time: 0 hr 31 min 36 sec) 
Heartbeat CPU  0 instructions:  600000000 cycles: 1128126205 heartbeat IPC: 0.46712 cumulative IPC: 0.47663 (Simulation time: 0 hr 31 min 39 sec) 
Finished CPU 0 instructions: 500000000 cycles: 1049029832 cumulative IPC: 0.47663 (Simulation time: 0 hr 31 min 39 sec) 

ChampSim completed all CPUs

[ROI Statistics]
Core_0_instructions 500000000
Core_0_cycles 1049029832
Core_0_IPC 0.47663

Core_0_branch_prediction_accuracy 99.58640
Core_0_branch_MPKI 0.02120
Core_0_average_ROB_occupancy_at_mispredict 244.39855

Core_0_L1D_total_access 289526324
Core_0_L1D_total_hit 285217112
Core_0_L1D_total_miss 4309212
Core_0_L1D_loads 258547901
Core_0_L1D_load_hit 254239609
Core_0_L1D_load_miss 4308292
Core_0_L1D_RFOs 30978423
Core_0_L1D_RFO_hit 30977503
Core_0_L1D_RFO_miss 920
Core_0_L1D_prefetches 0
Core_0_L1D_prefetch_hit 0
Core_0_L1D_prefetch_miss 0
Core_0_L1D_writebacks 0
Core_0_L1D_writeback_hit 0
Core_0_L1D_writeback_miss 0
Core_0_L1D_prefetch_requested 0
Core_0_L1D_prefetch_dropped 0
Core_0_L1D_prefetch_issued 0
Core_0_L1D_prefetch_filled 0
Core_0_L1D_prefetch_useful 0
Core_0_L1D_prefetch_useless 0
Core_0_L1D_prefetch_late 0
Core_0_L1D_average_miss_latency 188.22771

Core_0_L1D_rq_access 307601961
Core_0_L1D_rq_forward 0
Core_0_L1D_rq_merged 48983487
Core_0_L1D_rq_to_cache 258594987
Core_0_L1D_rq_full 0

Core_0_L1D_wq_access 30978597
Core_0_L1D_wq_forward 23487
Core_0_L1D_wq_merged 0
Core_0_L1D_wq_to_cache 30978597
Core_0_L1D_wq_full 0

Core_0_L1D_pq_access 0
Core_0_L1D_pq_forward 0
Core_0_L1D_pq_merged 0
Core_0_L1D_pq_to_cache 0
Core_0_L1D_pq_full 0

Core_0_L1D_acc_epochs 1088521
Core_0_L1D_acc_level_0 1088521
Core_0_L1D_acc_level_1 0
Core_0_L1D_acc_level_2 0
Core_0_L1D_acc_level_3 0
Core_0_L1D_acc_level_4 0
Core_0_L1D_acc_level_5 0
Core_0_L1D_acc_level_6 0
Core_0_L1D_acc_level_7 0
Core_0_L1D_acc_level_8 0
Core_0_L1D_acc_level_9 0

Core_0_L1I_total_access 134249474
Core_0_L1I_total_hit 134249297
Core_0_L1I_total_miss 177
Core_0_L1I_loads 134249474
Core_0_L1I_load_hit 134249297
Core_0_L1I_load_miss 177
Core_0_L1I_RFOs 0
Core_0_L1I_RFO_hit 0
Core_0_L1I_RFO_miss 0
Core_0_L1I_prefetches 0
Core_0_L1I_prefetch_hit 0
Core_0_L1I_prefetch_miss 0
Core_0_L1I_writebacks 0
Core_0_L1I_writeback_hit 0
Core_0_L1I_writeback_miss 0
Core_0_L1I_prefetch_requested 0
Core_0_L1I_prefetch_dropped 0
Core_0_L1I_prefetch_issued 0
Core_0_L1I_prefetch_filled 0
Core_0_L1I_prefetch_useful 0
Core_0_L1I_prefetch_useless 0
Core_0_L1I_prefetch_late 0
Core_0_L1I_average_miss_latency 451.75141

Core_0_L1I_rq_access 500000003
Core_0_L1I_rq_forward 0
Core_0_L1I_rq_merged 365750458
Core_0_L1I_rq_to_cache 134249545
Core_0_L1I_rq_full 0

Core_0_L1I_wq_access 0
Core_0_L1I_wq_forward 0
Core_0_L1I_wq_merged 0
Core_0_L1I_wq_to_cache 0
Core_0_L1I_wq_full 0

Core_0_L1I_pq_access 0
Core_0_L1I_pq_forward 0
Core_0_L1I_pq_merged 0
Core_0_L1I_pq_to_cache 0
Core_0_L1I_pq_full 0

Core_0_L1I_acc_epochs 1088521
Core_0_L1I_acc_level_0 1088521
Core_0_L1I_acc_level_1 0
Core_0_L1I_acc_level_2 0
Core_0_L1I_acc_level_3 0
Core_0_L1I_acc_level_4 0
Core_0_L1I_acc_level_5 0
Core_0_L1I_acc_level_6 0
Core_0_L1I_acc_level_7 0
Core_0_L1I_acc_level_8 0
Core_0_L1I_acc_level_9 0

Core_0_L2C_total_access 6234340
Core_0_L2C_total_hit 2824386
Core_0_L2C_total_miss 3409954
Core_0_L2C_loads 4307659
Core_0_L2C_load_hit 897845
Core_0_L2C_load_miss 3409814
Core_0_L2C_RFOs 792
Core_0_L2C_RFO_hit 769
Core_0_L2C_RFO_miss 23
Core_0_L2C_prefetches 0
Core_0_L2C_prefetch_hit 0
Core_0_L2C_prefetch_miss 0
Core_0_L2C_writebacks 1925889
Core_0_L2C_writeback_hit 1925772
Core_0_L2C_writeback_miss 117
Core_0_L2C_prefetch_requested 0
Core_0_L2C_prefetch_dropped 0
Core_0_L2C_prefetch_issued 0
Core_0_L2C_prefetch_filled 0
Core_0_L2C_prefetch_useful 0
Core_0_L2C_prefetch_useless 0
Core_0_L2C_prefetch_late 0
Core_0_L2C_average_miss_latency 219.26193

Core_0_L2C_rq_access 4309389
Core_0_L2C_rq_forward 0
Core_0_L2C_rq_merged 0
Core_0_L2C_rq_to_cache 4308451
Core_0_L2C_rq_full 0

Core_0_L2C_wq_access 1925889
Core_0_L2C_wq_forward 938
Core_0_L2C_wq_merged 0
Core_0_L2C_wq_to_cache 1925889
Core_0_L2C_wq_full 0

Core_0_L2C_pq_access 0
Core_0_L2C_pq_forward 0
Core_0_L2C_pq_merged 0
Core_0_L2C_pq_to_cache 0
Core_0_L2C_pq_full 0

Core_0_L2C_acc_epochs 1088521
Core_0_L2C_acc_level_0 1088521
Core_0_L2C_acc_level_1 0
Core_0_L2C_acc_level_2 0
Core_0_L2C_acc_level_3 0
Core_0_L2C_acc_level_4 0
Core_0_L2C_acc_level_5 0
Core_0_L2C_acc_level_6 0
Core_0_L2C_acc_level_7 0
Core_0_L2C_acc_level_8 0
Core_0_L2C_acc_level_9 0

Core_0_LLC_total_access 5319422
Core_0_LLC_total_hit 334596
Core_0_LLC_total_miss 4984826
Core_0_LLC_loads 3409814
Core_0_LLC_load_hit 180866
Core_0_LLC_load_miss 3228948
Core_0_LLC_RFOs 23
Core_0_LLC_RFO_hit 6
Core_0_LLC_RFO_miss 17
Core_0_LLC_prefetches 0
Core_0_LLC_prefetch_hit 0
Core_0_LLC_prefetch_miss 0
Core_0_LLC_writebacks 1909585
Core_0_LLC_writeback_hit 153724
Core_0_LLC_writeback_miss 1755861
Core_0_LLC_prefetch_requested 0
Core_0_LLC_prefetch_dropped 0
Core_0_LLC_prefetch_issued 0
Core_0_LLC_prefetch_filled 0
Core_0_LLC_prefetch_useful 0
Core_0_LLC_prefetch_useless 0
Core_0_LLC_prefetch_late 0
Core_0_LLC_average_miss_latency 129.04123

Core_0_LLC_rq_access 3409837
Core_0_LLC_rq_forward 0
Core_0_LLC_rq_merged 0
Core_0_LLC_rq_to_cache 3409837
Core_0_LLC_rq_full 0

Core_0_LLC_wq_access 1909585
Core_0_LLC_wq_forward 0
Core_0_LLC_wq_merged 0
Core_0_LLC_wq_to_cache 1909585
Core_0_LLC_wq_full 0

Core_0_LLC_pq_access 0
Core_0_LLC_pq_forward 0
Core_0_LLC_pq_merged 0
Core_0_LLC_pq_to_cache 0
Core_0_LLC_pq_full 0

Core_0_LLC_acc_epochs 1101686
Core_0_LLC_acc_level_0 1101686
Core_0_LLC_acc_level_1 0
Core_0_LLC_acc_level_2 0
Core_0_LLC_acc_level_3 0
Core_0_LLC_acc_level_4 0
Core_0_LLC_acc_level_5 0
Core_0_LLC_acc_level_6 0
Core_0_LLC_acc_level_7 0
Core_0_LLC_acc_level_8 0
Core_0_LLC_acc_level_9 0

Core_0_major_page_fault 0
Core_0_minor_page_fault 169020

Channel_0_RQ_row_buffer_hit 1244581
Channel_0_RQ_row_buffer_miss 1984384
Channel_0_WQ_row_buffer_hit 283883
Channel_0_WQ_row_buffer_miss 1607575
Channel_0_WQ_full 0
Channel_0_dbus_congested 1868588

avg_congested_cycle 22

DRAM_bw_pochs 4406744
DRAM_bw_level_0 3116929
DRAM_bw_level_1 802194
DRAM_bw_level_2 334595
DRAM_bw_level_3 153026
