*************************************************
   ChampSim Multicore Out-of-Order Simulator
   Last compiled: Dec 11 2024 17:59:53
*************************************************
parsing config file: /home/functionmain/桌面/Pythia/config/bingo.ini

trace_0 /home/functionmain/桌面/Pythia/traces/459.GemsFDTD-1418B.champsimtrace.xz
adding L2C_PREFETCHER: Bingo
Initialize SHIP state
warmup_instructions 100000000
simulation_instructions 500000000
champsim_seed 272
measure_ipc 0
measure_ipc_epoch 1000
measure_dram_bw 1
measure_dram_bw_epoch 256
measure_cache_acc 1
measure_cache_acc_epoch 1024
l1d_perfect 0
l2c_perfect 0
llc_perfect 0
l1d_semi_perfect 0
l2c_semi_perfect 0
llc_semi_perfect 0
semi_perfect_cache_page_buffer_size 64

num_cpus 1
cpu_freq 4000
dram_io_freq 1200
page_size 4096
block_size 64
max_read_per_cycle 8
max_fill_per_cycle 1
dram_channels 1
log2_dram_channels 0
dram_ranks 1
dram_banks 8
dram_rows 65536
dram_columns 128
dram_row_size 8
dram_size 4096
dram_pages 1048576

fetch_width 6
decode_width 6
exec_width 4
lq_width 2
sq_width 2
retire_width 4
scheduler_size 128
branch_mispredict_penalty 20
rob_size 256
lq_size 72
sq_size 56
num_instr_destinations_sparc 4
num_instr_destinations 2
num_instr_sources 4

itlb_set 16
itlb_way 8
itlb_rq_size 16
itlb_wq_size 16
itlb_pq_size 0
itlb_mshr_size 8
itlb_latency 1

dtlb_set 16
dtlb_way 4
dtlb_rq_size 16
dtlb_wq_size 16
dtlb_pq_size 0
dtlb_mshr_size 8
dtlb_latency 1

stlb_set 128
stlb_way 12
stlb_rq_size 32
stlb_wq_size 32
stlb_pq_size 0
stlb_mshr_size 16
stlb_latency 8

l1i_size 32
l1i_set 64
l1i_way 8
l1i_rq_size 64
l1i_wq_size 64
l1i_pq_size 8
l1i_mshr_size 8
l1i_latency 1

l1d_size 32
l1d_set 64
l1d_way 8
l1d_rq_size 64
l1d_wq_size 64
l1d_pq_size 8
l1d_mshr_size 16
l1d_latency 4

l2c_size 256
l2c_set 512
l2c_way 8
l2c_rq_size 32
l2c_wq_size 32
l2c_pq_size 32
l2c_mshr_size 32
l2c_latency 10

llc_size 2048
llc_set 2048
llc_way 16
llc_rq_size 32
llc_wq_size 32
llc_pq_size 32
llc_mshr_size 64
llc_latency 20

dram_channel_width 8
dram_wq_size 64
dram_rq_size 64
tRP 15
tRCD 15
tCAS 12.5
dram_dbus_turn_around_time 30
dram_write_high_wm 56
dram_write_low_wm 48
min_dram_writes_per_switch 16
dram_mtps 1200
dram_dbus_return_time 26

bingo_region_size 2048
bingo_pattern_len 32
bingo_pc_width 16
bingo_min_addr_width 5
bingo_max_addr_width 16
bingo_ft_size 64
bingo_at_size 128
bingo_pht_size 4096
bingo_pht_ways 16
bingo_pf_streamer_size 128
bingo_debug_level 0
bingo_l1d_thresh 1.01
bingo_l2c_thresh 0.8
bingo_llc_thresh 0.05
bingo_pc_address_fill_level L2


Heartbeat CPU  0 instructions:    1000001 cycles:     779108 heartbeat IPC: 1.28352 cumulative IPC: 1.28352 (Simulation time: 0 hr 0 min 2 sec) 
Heartbeat CPU  0 instructions:    2000002 cycles:    1557983 heartbeat IPC: 1.28390 cumulative IPC: 1.28371 (Simulation time: 0 hr 0 min 5 sec) 
Heartbeat CPU  0 instructions:    3000003 cycles:    2336573 heartbeat IPC: 1.28437 cumulative IPC: 1.28393 (Simulation time: 0 hr 0 min 8 sec) 
Heartbeat CPU  0 instructions:    4000000 cycles:    3115273 heartbeat IPC: 1.28419 cumulative IPC: 1.28400 (Simulation time: 0 hr 0 min 10 sec) 
Heartbeat CPU  0 instructions:    5000001 cycles:    3893987 heartbeat IPC: 1.28417 cumulative IPC: 1.28403 (Simulation time: 0 hr 0 min 13 sec) 
Heartbeat CPU  0 instructions:    6000002 cycles:    4672670 heartbeat IPC: 1.28422 cumulative IPC: 1.28406 (Simulation time: 0 hr 0 min 16 sec) 
Heartbeat CPU  0 instructions:    7000003 cycles:    5451319 heartbeat IPC: 1.28428 cumulative IPC: 1.28409 (Simulation time: 0 hr 0 min 18 sec) 
Heartbeat CPU  0 instructions:    8000000 cycles:    6229636 heartbeat IPC: 1.28482 cumulative IPC: 1.28418 (Simulation time: 0 hr 0 min 21 sec) 
Heartbeat CPU  0 instructions:    9000002 cycles:    7008281 heartbeat IPC: 1.28428 cumulative IPC: 1.28420 (Simulation time: 0 hr 0 min 24 sec) 
Heartbeat CPU  0 instructions:   10000003 cycles:    7786874 heartbeat IPC: 1.28437 cumulative IPC: 1.28421 (Simulation time: 0 hr 0 min 26 sec) 
Heartbeat CPU  0 instructions:   11000000 cycles:    8565316 heartbeat IPC: 1.28461 cumulative IPC: 1.28425 (Simulation time: 0 hr 0 min 29 sec) 
Heartbeat CPU  0 instructions:   12000000 cycles:    9343786 heartbeat IPC: 1.28457 cumulative IPC: 1.28428 (Simulation time: 0 hr 0 min 32 sec) 
Heartbeat CPU  0 instructions:   13000003 cycles:   10122621 heartbeat IPC: 1.28397 cumulative IPC: 1.28425 (Simulation time: 0 hr 0 min 35 sec) 
Heartbeat CPU  0 instructions:   14000000 cycles:   10901183 heartbeat IPC: 1.28442 cumulative IPC: 1.28426 (Simulation time: 0 hr 0 min 37 sec) 
Heartbeat CPU  0 instructions:   15000001 cycles:   11679764 heartbeat IPC: 1.28439 cumulative IPC: 1.28427 (Simulation time: 0 hr 0 min 40 sec) 
Heartbeat CPU  0 instructions:   16000000 cycles:   12458573 heartbeat IPC: 1.28401 cumulative IPC: 1.28426 (Simulation time: 0 hr 0 min 43 sec) 
Heartbeat CPU  0 instructions:   17000003 cycles:   13237065 heartbeat IPC: 1.28454 cumulative IPC: 1.28427 (Simulation time: 0 hr 0 min 46 sec) 
Heartbeat CPU  0 instructions:   18000000 cycles:   14015478 heartbeat IPC: 1.28466 cumulative IPC: 1.28429 (Simulation time: 0 hr 0 min 49 sec) 
Heartbeat CPU  0 instructions:   19000003 cycles:   14794141 heartbeat IPC: 1.28426 cumulative IPC: 1.28429 (Simulation time: 0 hr 0 min 52 sec) 
Heartbeat CPU  0 instructions:   20000000 cycles:   15572711 heartbeat IPC: 1.28440 cumulative IPC: 1.28430 (Simulation time: 0 hr 0 min 55 sec) 
Heartbeat CPU  0 instructions:   21000003 cycles:   16351609 heartbeat IPC: 1.28387 cumulative IPC: 1.28428 (Simulation time: 0 hr 0 min 57 sec) 
Heartbeat CPU  0 instructions:   22000000 cycles:   17130101 heartbeat IPC: 1.28453 cumulative IPC: 1.28429 (Simulation time: 0 hr 1 min 0 sec) 
Heartbeat CPU  0 instructions:   23000003 cycles:   17908757 heartbeat IPC: 1.28427 cumulative IPC: 1.28429 (Simulation time: 0 hr 1 min 3 sec) 
Heartbeat CPU  0 instructions:   24000000 cycles:   18687583 heartbeat IPC: 1.28398 cumulative IPC: 1.28428 (Simulation time: 0 hr 1 min 5 sec) 
Heartbeat CPU  0 instructions:   25000001 cycles:   19465924 heartbeat IPC: 1.28479 cumulative IPC: 1.28430 (Simulation time: 0 hr 1 min 8 sec) 
Heartbeat CPU  0 instructions:   26000001 cycles:   20244465 heartbeat IPC: 1.28445 cumulative IPC: 1.28430 (Simulation time: 0 hr 1 min 10 sec) 
Heartbeat CPU  0 instructions:   27000002 cycles:   21023145 heartbeat IPC: 1.28423 cumulative IPC: 1.28430 (Simulation time: 0 hr 1 min 13 sec) 
Heartbeat CPU  0 instructions:   28000000 cycles:   21801697 heartbeat IPC: 1.28443 cumulative IPC: 1.28430 (Simulation time: 0 hr 1 min 15 sec) 
Heartbeat CPU  0 instructions:   29000001 cycles:   22580206 heartbeat IPC: 1.28451 cumulative IPC: 1.28431 (Simulation time: 0 hr 1 min 18 sec) 
Heartbeat CPU  0 instructions:   30000002 cycles:   23358947 heartbeat IPC: 1.28413 cumulative IPC: 1.28430 (Simulation time: 0 hr 1 min 21 sec) 
Heartbeat CPU  0 instructions:   31000003 cycles:   24137539 heartbeat IPC: 1.28437 cumulative IPC: 1.28431 (Simulation time: 0 hr 1 min 23 sec) 
Heartbeat CPU  0 instructions:   32000000 cycles:   24916043 heartbeat IPC: 1.28451 cumulative IPC: 1.28431 (Simulation time: 0 hr 1 min 26 sec) 
Heartbeat CPU  0 instructions:   33000003 cycles:   25694577 heartbeat IPC: 1.28447 cumulative IPC: 1.28432 (Simulation time: 0 hr 1 min 29 sec) 
Heartbeat CPU  0 instructions:   34000002 cycles:   26463853 heartbeat IPC: 1.29992 cumulative IPC: 1.28477 (Simulation time: 0 hr 1 min 31 sec) 
Heartbeat CPU  0 instructions:   35000001 cycles:   27246027 heartbeat IPC: 1.27849 cumulative IPC: 1.28459 (Simulation time: 0 hr 1 min 34 sec) 
Heartbeat CPU  0 instructions:   36000000 cycles:   28026657 heartbeat IPC: 1.28102 cumulative IPC: 1.28449 (Simulation time: 0 hr 1 min 37 sec) 
Heartbeat CPU  0 instructions:   37000000 cycles:   28807299 heartbeat IPC: 1.28100 cumulative IPC: 1.28440 (Simulation time: 0 hr 1 min 39 sec) 
Heartbeat CPU  0 instructions:   38000001 cycles:   29587637 heartbeat IPC: 1.28150 cumulative IPC: 1.28432 (Simulation time: 0 hr 1 min 42 sec) 
Heartbeat CPU  0 instructions:   39000003 cycles:   30368132 heartbeat IPC: 1.28124 cumulative IPC: 1.28424 (Simulation time: 0 hr 1 min 44 sec) 
Heartbeat CPU  0 instructions:   40000000 cycles:   31148986 heartbeat IPC: 1.28065 cumulative IPC: 1.28415 (Simulation time: 0 hr 1 min 47 sec) 
Heartbeat CPU  0 instructions:   41000000 cycles:   31929899 heartbeat IPC: 1.28055 cumulative IPC: 1.28406 (Simulation time: 0 hr 1 min 50 sec) 
Heartbeat CPU  0 instructions:   42000002 cycles:   32710313 heartbeat IPC: 1.28137 cumulative IPC: 1.28400 (Simulation time: 0 hr 1 min 52 sec) 
Heartbeat CPU  0 instructions:   43000000 cycles:   33490427 heartbeat IPC: 1.28186 cumulative IPC: 1.28395 (Simulation time: 0 hr 1 min 55 sec) 
Heartbeat CPU  0 instructions:   44000000 cycles:   34269838 heartbeat IPC: 1.28302 cumulative IPC: 1.28393 (Simulation time: 0 hr 1 min 57 sec) 
Heartbeat CPU  0 instructions:   45000000 cycles:   35049536 heartbeat IPC: 1.28255 cumulative IPC: 1.28390 (Simulation time: 0 hr 2 min 0 sec) 
Heartbeat CPU  0 instructions:   46000002 cycles:   35829160 heartbeat IPC: 1.28267 cumulative IPC: 1.28387 (Simulation time: 0 hr 2 min 2 sec) 
Heartbeat CPU  0 instructions:   47000001 cycles:   36608152 heartbeat IPC: 1.28371 cumulative IPC: 1.28387 (Simulation time: 0 hr 2 min 5 sec) 
Heartbeat CPU  0 instructions:   48000000 cycles:   37386981 heartbeat IPC: 1.28398 cumulative IPC: 1.28387 (Simulation time: 0 hr 2 min 8 sec) 
Heartbeat CPU  0 instructions:   49000001 cycles:   38166867 heartbeat IPC: 1.28224 cumulative IPC: 1.28384 (Simulation time: 0 hr 2 min 10 sec) 
Heartbeat CPU  0 instructions:   50000002 cycles:   38946669 heartbeat IPC: 1.28238 cumulative IPC: 1.28381 (Simulation time: 0 hr 2 min 13 sec) 
Heartbeat CPU  0 instructions:   51000000 cycles:   39725561 heartbeat IPC: 1.28387 cumulative IPC: 1.28381 (Simulation time: 0 hr 2 min 16 sec) 
Heartbeat CPU  0 instructions:   52000000 cycles:   40504493 heartbeat IPC: 1.28381 cumulative IPC: 1.28381 (Simulation time: 0 hr 2 min 18 sec) 
Heartbeat CPU  0 instructions:   53000002 cycles:   41285233 heartbeat IPC: 1.28084 cumulative IPC: 1.28375 (Simulation time: 0 hr 2 min 21 sec) 
Heartbeat CPU  0 instructions:   54000000 cycles:   42065666 heartbeat IPC: 1.28134 cumulative IPC: 1.28371 (Simulation time: 0 hr 2 min 24 sec) 
Heartbeat CPU  0 instructions:   55000003 cycles:   42845655 heartbeat IPC: 1.28207 cumulative IPC: 1.28368 (Simulation time: 0 hr 2 min 26 sec) 
Heartbeat CPU  0 instructions:   56000000 cycles:   43625916 heartbeat IPC: 1.28162 cumulative IPC: 1.28364 (Simulation time: 0 hr 2 min 29 sec) 
Heartbeat CPU  0 instructions:   57000001 cycles:   44407116 heartbeat IPC: 1.28008 cumulative IPC: 1.28358 (Simulation time: 0 hr 2 min 31 sec) 
Heartbeat CPU  0 instructions:   58000000 cycles:   45187761 heartbeat IPC: 1.28099 cumulative IPC: 1.28353 (Simulation time: 0 hr 2 min 34 sec) 
Heartbeat CPU  0 instructions:   59000001 cycles:   45968151 heartbeat IPC: 1.28141 cumulative IPC: 1.28350 (Simulation time: 0 hr 2 min 37 sec) 
Heartbeat CPU  0 instructions:   60000000 cycles:   46748660 heartbeat IPC: 1.28121 cumulative IPC: 1.28346 (Simulation time: 0 hr 2 min 39 sec) 
Heartbeat CPU  0 instructions:   61000003 cycles:   47529735 heartbeat IPC: 1.28029 cumulative IPC: 1.28341 (Simulation time: 0 hr 2 min 42 sec) 
Heartbeat CPU  0 instructions:   62000002 cycles:   48308959 heartbeat IPC: 1.28333 cumulative IPC: 1.28341 (Simulation time: 0 hr 2 min 45 sec) 
Heartbeat CPU  0 instructions:   63000002 cycles:   49088240 heartbeat IPC: 1.28323 cumulative IPC: 1.28340 (Simulation time: 0 hr 2 min 47 sec) 
Heartbeat CPU  0 instructions:   64000000 cycles:   49867399 heartbeat IPC: 1.28343 cumulative IPC: 1.28340 (Simulation time: 0 hr 2 min 50 sec) 
Heartbeat CPU  0 instructions:   65000002 cycles:   50646931 heartbeat IPC: 1.28282 cumulative IPC: 1.28339 (Simulation time: 0 hr 2 min 53 sec) 
Heartbeat CPU  0 instructions:   66000001 cycles:   51425806 heartbeat IPC: 1.28390 cumulative IPC: 1.28340 (Simulation time: 0 hr 2 min 55 sec) 
Heartbeat CPU  0 instructions:   67000003 cycles:   52204760 heartbeat IPC: 1.28378 cumulative IPC: 1.28341 (Simulation time: 0 hr 2 min 58 sec) 
Heartbeat CPU  0 instructions:   68000000 cycles:   52984709 heartbeat IPC: 1.28213 cumulative IPC: 1.28339 (Simulation time: 0 hr 3 min 1 sec) 
Heartbeat CPU  0 instructions:   69000002 cycles:   53764085 heartbeat IPC: 1.28308 cumulative IPC: 1.28338 (Simulation time: 0 hr 3 min 4 sec) 
Heartbeat CPU  0 instructions:   70000001 cycles:   54543744 heartbeat IPC: 1.28261 cumulative IPC: 1.28337 (Simulation time: 0 hr 3 min 6 sec) 
Heartbeat CPU  0 instructions:   71000003 cycles:   55323792 heartbeat IPC: 1.28197 cumulative IPC: 1.28335 (Simulation time: 0 hr 3 min 9 sec) 
Heartbeat CPU  0 instructions:   72000000 cycles:   56104016 heartbeat IPC: 1.28168 cumulative IPC: 1.28333 (Simulation time: 0 hr 3 min 12 sec) 
Heartbeat CPU  0 instructions:   73000000 cycles:   56885184 heartbeat IPC: 1.28013 cumulative IPC: 1.28329 (Simulation time: 0 hr 3 min 15 sec) 
Heartbeat CPU  0 instructions:   74000002 cycles:   57665743 heartbeat IPC: 1.28114 cumulative IPC: 1.28326 (Simulation time: 0 hr 3 min 18 sec) 
Heartbeat CPU  0 instructions:   75000000 cycles:   58446934 heartbeat IPC: 1.28009 cumulative IPC: 1.28322 (Simulation time: 0 hr 3 min 20 sec) 
Heartbeat CPU  0 instructions:   76000000 cycles:   59227627 heartbeat IPC: 1.28091 cumulative IPC: 1.28319 (Simulation time: 0 hr 3 min 23 sec) 
Heartbeat CPU  0 instructions:   77000003 cycles:   60007539 heartbeat IPC: 1.28220 cumulative IPC: 1.28317 (Simulation time: 0 hr 3 min 26 sec) 
Heartbeat CPU  0 instructions:   78000001 cycles:   60787740 heartbeat IPC: 1.28172 cumulative IPC: 1.28315 (Simulation time: 0 hr 3 min 29 sec) 
Heartbeat CPU  0 instructions:   79000001 cycles:   61569010 heartbeat IPC: 1.27997 cumulative IPC: 1.28311 (Simulation time: 0 hr 3 min 31 sec) 
Heartbeat CPU  0 instructions:   80000000 cycles:   62349231 heartbeat IPC: 1.28169 cumulative IPC: 1.28310 (Simulation time: 0 hr 3 min 34 sec) 
Heartbeat CPU  0 instructions:   81000001 cycles:   63128064 heartbeat IPC: 1.28397 cumulative IPC: 1.28311 (Simulation time: 0 hr 3 min 37 sec) 
Heartbeat CPU  0 instructions:   82000002 cycles:   63906649 heartbeat IPC: 1.28438 cumulative IPC: 1.28312 (Simulation time: 0 hr 3 min 40 sec) 
Heartbeat CPU  0 instructions:   83000000 cycles:   64687832 heartbeat IPC: 1.28011 cumulative IPC: 1.28309 (Simulation time: 0 hr 3 min 44 sec) 
Heartbeat CPU  0 instructions:   84000000 cycles:   65466902 heartbeat IPC: 1.28358 cumulative IPC: 1.28309 (Simulation time: 0 hr 3 min 47 sec) 
Heartbeat CPU  0 instructions:   85000002 cycles:   66245791 heartbeat IPC: 1.28388 cumulative IPC: 1.28310 (Simulation time: 0 hr 3 min 49 sec) 
Heartbeat CPU  0 instructions:   86000001 cycles:   67024826 heartbeat IPC: 1.28364 cumulative IPC: 1.28311 (Simulation time: 0 hr 3 min 52 sec) 
Heartbeat CPU  0 instructions:   87000001 cycles:   67804078 heartbeat IPC: 1.28328 cumulative IPC: 1.28311 (Simulation time: 0 hr 3 min 55 sec) 
Heartbeat CPU  0 instructions:   88000000 cycles:   68583282 heartbeat IPC: 1.28336 cumulative IPC: 1.28311 (Simulation time: 0 hr 3 min 57 sec) 
Heartbeat CPU  0 instructions:   89000001 cycles:   69363424 heartbeat IPC: 1.28182 cumulative IPC: 1.28310 (Simulation time: 0 hr 4 min 0 sec) 
Heartbeat CPU  0 instructions:   90000003 cycles:   70143592 heartbeat IPC: 1.28178 cumulative IPC: 1.28308 (Simulation time: 0 hr 4 min 3 sec) 
Heartbeat CPU  0 instructions:   91000001 cycles:   70923874 heartbeat IPC: 1.28159 cumulative IPC: 1.28307 (Simulation time: 0 hr 4 min 6 sec) 
Heartbeat CPU  0 instructions:   92000000 cycles:   71704491 heartbeat IPC: 1.28104 cumulative IPC: 1.28304 (Simulation time: 0 hr 4 min 8 sec) 
Heartbeat CPU  0 instructions:   93000002 cycles:   72484941 heartbeat IPC: 1.28131 cumulative IPC: 1.28303 (Simulation time: 0 hr 4 min 11 sec) 
Heartbeat CPU  0 instructions:   94000000 cycles:   73265313 heartbeat IPC: 1.28144 cumulative IPC: 1.28301 (Simulation time: 0 hr 4 min 14 sec) 
Heartbeat CPU  0 instructions:   95000001 cycles:   74045414 heartbeat IPC: 1.28189 cumulative IPC: 1.28300 (Simulation time: 0 hr 4 min 16 sec) 
Heartbeat CPU  0 instructions:   96000000 cycles:   74825832 heartbeat IPC: 1.28136 cumulative IPC: 1.28298 (Simulation time: 0 hr 4 min 19 sec) 
Heartbeat CPU  0 instructions:   97000002 cycles:   75607144 heartbeat IPC: 1.27990 cumulative IPC: 1.28295 (Simulation time: 0 hr 4 min 22 sec) 
Heartbeat CPU  0 instructions:   98000001 cycles:   76386445 heartbeat IPC: 1.28320 cumulative IPC: 1.28295 (Simulation time: 0 hr 4 min 24 sec) 
Heartbeat CPU  0 instructions:   99000003 cycles:   77165521 heartbeat IPC: 1.28357 cumulative IPC: 1.28296 (Simulation time: 0 hr 4 min 27 sec) 
Heartbeat CPU  0 instructions:  100000000 cycles:   77944349 heartbeat IPC: 1.28398 cumulative IPC: 1.28297 (Simulation time: 0 hr 4 min 30 sec) 

Warmup complete CPU  0 instructions:  100000001 cycles:   77944350 (Simulation time: 0 hr 4 min 30 sec) 

Heartbeat CPU  0 instructions:  101000003 cycles:   79436166 heartbeat IPC: 0.67033 cumulative IPC: 0.67033 (Simulation time: 0 hr 4 min 33 sec) 
Heartbeat CPU  0 instructions:  102000000 cycles:   80922461 heartbeat IPC: 0.67281 cumulative IPC: 0.67157 (Simulation time: 0 hr 4 min 36 sec) 
Heartbeat CPU  0 instructions:  103000002 cycles:   82404878 heartbeat IPC: 0.67458 cumulative IPC: 0.67257 (Simulation time: 0 hr 4 min 40 sec) 
Heartbeat CPU  0 instructions:  104000000 cycles:   83860588 heartbeat IPC: 0.68695 cumulative IPC: 0.67611 (Simulation time: 0 hr 4 min 43 sec) 
Heartbeat CPU  0 instructions:  105000003 cycles:   85354193 heartbeat IPC: 0.66952 cumulative IPC: 0.67478 (Simulation time: 0 hr 4 min 46 sec) 
Heartbeat CPU  0 instructions:  106000002 cycles:   86826785 heartbeat IPC: 0.67907 cumulative IPC: 0.67549 (Simulation time: 0 hr 4 min 49 sec) 
Heartbeat CPU  0 instructions:  107000000 cycles:   88281235 heartbeat IPC: 0.68754 cumulative IPC: 0.67719 (Simulation time: 0 hr 4 min 53 sec) 
Heartbeat CPU  0 instructions:  108000000 cycles:   89770209 heartbeat IPC: 0.67160 cumulative IPC: 0.67648 (Simulation time: 0 hr 4 min 56 sec) 
Heartbeat CPU  0 instructions:  109000003 cycles:   91238033 heartbeat IPC: 0.68128 cumulative IPC: 0.67701 (Simulation time: 0 hr 4 min 59 sec) 
Heartbeat CPU  0 instructions:  110000001 cycles:   92702908 heartbeat IPC: 0.68265 cumulative IPC: 0.67757 (Simulation time: 0 hr 5 min 2 sec) 
Heartbeat CPU  0 instructions:  111000000 cycles:   94147939 heartbeat IPC: 0.69203 cumulative IPC: 0.67886 (Simulation time: 0 hr 5 min 5 sec) 
Heartbeat CPU  0 instructions:  112000000 cycles:   95609707 heartbeat IPC: 0.68410 cumulative IPC: 0.67930 (Simulation time: 0 hr 5 min 9 sec) 
Heartbeat CPU  0 instructions:  113000000 cycles:   97076079 heartbeat IPC: 0.68196 cumulative IPC: 0.67950 (Simulation time: 0 hr 5 min 12 sec) 
Heartbeat CPU  0 instructions:  114000002 cycles:   98519798 heartbeat IPC: 0.69266 cumulative IPC: 0.68042 (Simulation time: 0 hr 5 min 15 sec) 
Heartbeat CPU  0 instructions:  115000000 cycles:   99982430 heartbeat IPC: 0.68370 cumulative IPC: 0.68064 (Simulation time: 0 hr 5 min 18 sec) 
Heartbeat CPU  0 instructions:  116000000 cycles:  101441801 heartbeat IPC: 0.68523 cumulative IPC: 0.68092 (Simulation time: 0 hr 5 min 22 sec) 
Heartbeat CPU  0 instructions:  117000000 cycles:  102895520 heartbeat IPC: 0.68789 cumulative IPC: 0.68133 (Simulation time: 0 hr 5 min 25 sec) 
Heartbeat CPU  0 instructions:  118000003 cycles:  104338168 heartbeat IPC: 0.69317 cumulative IPC: 0.68198 (Simulation time: 0 hr 5 min 28 sec) 
Heartbeat CPU  0 instructions:  119000001 cycles:  105775547 heartbeat IPC: 0.69571 cumulative IPC: 0.68269 (Simulation time: 0 hr 5 min 31 sec) 
Heartbeat CPU  0 instructions:  120000000 cycles:  107236685 heartbeat IPC: 0.68440 cumulative IPC: 0.68277 (Simulation time: 0 hr 5 min 34 sec) 
Heartbeat CPU  0 instructions:  121000000 cycles:  108688529 heartbeat IPC: 0.68878 cumulative IPC: 0.68306 (Simulation time: 0 hr 5 min 37 sec) 
Heartbeat CPU  0 instructions:  122000002 cycles:  110152236 heartbeat IPC: 0.68320 cumulative IPC: 0.68306 (Simulation time: 0 hr 5 min 41 sec) 
Heartbeat CPU  0 instructions:  123000000 cycles:  111635728 heartbeat IPC: 0.67408 cumulative IPC: 0.68267 (Simulation time: 0 hr 5 min 44 sec) 
Heartbeat CPU  0 instructions:  124000000 cycles:  113108053 heartbeat IPC: 0.67920 cumulative IPC: 0.68252 (Simulation time: 0 hr 5 min 47 sec) 
Heartbeat CPU  0 instructions:  125000002 cycles:  114584311 heartbeat IPC: 0.67739 cumulative IPC: 0.68232 (Simulation time: 0 hr 5 min 50 sec) 
Heartbeat CPU  0 instructions:  126000000 cycles:  116040541 heartbeat IPC: 0.68670 cumulative IPC: 0.68248 (Simulation time: 0 hr 5 min 53 sec) 
Heartbeat CPU  0 instructions:  127000002 cycles:  117513790 heartbeat IPC: 0.67877 cumulative IPC: 0.68234 (Simulation time: 0 hr 5 min 57 sec) 
Heartbeat CPU  0 instructions:  128000000 cycles:  118972207 heartbeat IPC: 0.68567 cumulative IPC: 0.68246 (Simulation time: 0 hr 6 min 0 sec) 
Heartbeat CPU  0 instructions:  129000001 cycles:  120421086 heartbeat IPC: 0.69019 cumulative IPC: 0.68273 (Simulation time: 0 hr 6 min 3 sec) 
Heartbeat CPU  0 instructions:  130000003 cycles:  121905804 heartbeat IPC: 0.67353 cumulative IPC: 0.68242 (Simulation time: 0 hr 6 min 6 sec) 
Heartbeat CPU  0 instructions:  131000003 cycles:  123411631 heartbeat IPC: 0.66409 cumulative IPC: 0.68181 (Simulation time: 0 hr 6 min 10 sec) 
Heartbeat CPU  0 instructions:  132000000 cycles:  124880757 heartbeat IPC: 0.68067 cumulative IPC: 0.68177 (Simulation time: 0 hr 6 min 14 sec) 
Heartbeat CPU  0 instructions:  133000000 cycles:  126369839 heartbeat IPC: 0.67155 cumulative IPC: 0.68146 (Simulation time: 0 hr 6 min 17 sec) 
Heartbeat CPU  0 instructions:  134000002 cycles:  127897864 heartbeat IPC: 0.65444 cumulative IPC: 0.68063 (Simulation time: 0 hr 6 min 20 sec) 
Heartbeat CPU  0 instructions:  135000002 cycles:  129093753 heartbeat IPC: 0.83620 cumulative IPC: 0.68427 (Simulation time: 0 hr 6 min 23 sec) 
Heartbeat CPU  0 instructions:  136000000 cycles:  130296862 heartbeat IPC: 0.83118 cumulative IPC: 0.68765 (Simulation time: 0 hr 6 min 26 sec) 
Heartbeat CPU  0 instructions:  137000002 cycles:  131773781 heartbeat IPC: 0.67709 cumulative IPC: 0.68736 (Simulation time: 0 hr 6 min 29 sec) 
Heartbeat CPU  0 instructions:  138000003 cycles:  132954466 heartbeat IPC: 0.84697 cumulative IPC: 0.69078 (Simulation time: 0 hr 6 min 32 sec) 
Heartbeat CPU  0 instructions:  139000001 cycles:  134124057 heartbeat IPC: 0.85500 cumulative IPC: 0.69420 (Simulation time: 0 hr 6 min 35 sec) 
Heartbeat CPU  0 instructions:  140000000 cycles:  135635516 heartbeat IPC: 0.66161 cumulative IPC: 0.69335 (Simulation time: 0 hr 6 min 37 sec) 
Heartbeat CPU  0 instructions:  141000003 cycles:  136774167 heartbeat IPC: 0.87823 cumulative IPC: 0.69693 (Simulation time: 0 hr 6 min 40 sec) 
Heartbeat CPU  0 instructions:  142000003 cycles:  137899027 heartbeat IPC: 0.88900 cumulative IPC: 0.70053 (Simulation time: 0 hr 6 min 43 sec) 
Heartbeat CPU  0 instructions:  143000000 cycles:  139529755 heartbeat IPC: 0.61322 cumulative IPC: 0.69822 (Simulation time: 0 hr 6 min 46 sec) 
Heartbeat CPU  0 instructions:  144000000 cycles:  141002351 heartbeat IPC: 0.67907 cumulative IPC: 0.69777 (Simulation time: 0 hr 6 min 49 sec) 
Heartbeat CPU  0 instructions:  145000002 cycles:  142426788 heartbeat IPC: 0.70203 cumulative IPC: 0.69786 (Simulation time: 0 hr 6 min 52 sec) 
Heartbeat CPU  0 instructions:  146000000 cycles:  143860580 heartbeat IPC: 0.69745 cumulative IPC: 0.69786 (Simulation time: 0 hr 6 min 55 sec) 
Heartbeat CPU  0 instructions:  147000002 cycles:  145291456 heartbeat IPC: 0.69887 cumulative IPC: 0.69788 (Simulation time: 0 hr 6 min 58 sec) 
Heartbeat CPU  0 instructions:  148000000 cycles:  146713351 heartbeat IPC: 0.70329 cumulative IPC: 0.69799 (Simulation time: 0 hr 7 min 1 sec) 
Heartbeat CPU  0 instructions:  149000001 cycles:  148145023 heartbeat IPC: 0.69848 cumulative IPC: 0.69800 (Simulation time: 0 hr 7 min 5 sec) 
Heartbeat CPU  0 instructions:  150000003 cycles:  149589133 heartbeat IPC: 0.69247 cumulative IPC: 0.69789 (Simulation time: 0 hr 7 min 8 sec) 
Heartbeat CPU  0 instructions:  151000001 cycles:  151041625 heartbeat IPC: 0.68847 cumulative IPC: 0.69770 (Simulation time: 0 hr 7 min 11 sec) 
Heartbeat CPU  0 instructions:  152000000 cycles:  152513378 heartbeat IPC: 0.67946 cumulative IPC: 0.69734 (Simulation time: 0 hr 7 min 14 sec) 
Heartbeat CPU  0 instructions:  153000002 cycles:  153929726 heartbeat IPC: 0.70604 cumulative IPC: 0.69750 (Simulation time: 0 hr 7 min 17 sec) 
Heartbeat CPU  0 instructions:  154000000 cycles:  155365091 heartbeat IPC: 0.69669 cumulative IPC: 0.69749 (Simulation time: 0 hr 7 min 21 sec) 
Heartbeat CPU  0 instructions:  155000000 cycles:  156814138 heartbeat IPC: 0.69011 cumulative IPC: 0.69735 (Simulation time: 0 hr 7 min 24 sec) 
Heartbeat CPU  0 instructions:  156000000 cycles:  158268147 heartbeat IPC: 0.68775 cumulative IPC: 0.69718 (Simulation time: 0 hr 7 min 27 sec) 
Heartbeat CPU  0 instructions:  157000001 cycles:  159715020 heartbeat IPC: 0.69115 cumulative IPC: 0.69707 (Simulation time: 0 hr 7 min 30 sec) 
Heartbeat CPU  0 instructions:  158000003 cycles:  161160332 heartbeat IPC: 0.69189 cumulative IPC: 0.69698 (Simulation time: 0 hr 7 min 33 sec) 
Heartbeat CPU  0 instructions:  159000002 cycles:  162633599 heartbeat IPC: 0.67876 cumulative IPC: 0.69666 (Simulation time: 0 hr 7 min 36 sec) 
Heartbeat CPU  0 instructions:  160000000 cycles:  164076085 heartbeat IPC: 0.69325 cumulative IPC: 0.69661 (Simulation time: 0 hr 7 min 40 sec) 
Heartbeat CPU  0 instructions:  161000003 cycles:  165556019 heartbeat IPC: 0.67571 cumulative IPC: 0.69625 (Simulation time: 0 hr 7 min 43 sec) 
Heartbeat CPU  0 instructions:  162000003 cycles:  167003306 heartbeat IPC: 0.69095 cumulative IPC: 0.69617 (Simulation time: 0 hr 7 min 46 sec) 
Heartbeat CPU  0 instructions:  163000001 cycles:  168447331 heartbeat IPC: 0.69251 cumulative IPC: 0.69611 (Simulation time: 0 hr 7 min 49 sec) 
Heartbeat CPU  0 instructions:  164000000 cycles:  169903060 heartbeat IPC: 0.68694 cumulative IPC: 0.69596 (Simulation time: 0 hr 7 min 52 sec) 
Heartbeat CPU  0 instructions:  165000002 cycles:  171356170 heartbeat IPC: 0.68818 cumulative IPC: 0.69584 (Simulation time: 0 hr 7 min 56 sec) 
Heartbeat CPU  0 instructions:  166000000 cycles:  172824499 heartbeat IPC: 0.68104 cumulative IPC: 0.69561 (Simulation time: 0 hr 7 min 59 sec) 
Heartbeat CPU  0 instructions:  167000002 cycles:  174275482 heartbeat IPC: 0.68919 cumulative IPC: 0.69552 (Simulation time: 0 hr 8 min 2 sec) 
Heartbeat CPU  0 instructions:  168000000 cycles:  175712160 heartbeat IPC: 0.69605 cumulative IPC: 0.69553 (Simulation time: 0 hr 8 min 5 sec) 
Heartbeat CPU  0 instructions:  169000001 cycles:  177147311 heartbeat IPC: 0.69679 cumulative IPC: 0.69554 (Simulation time: 0 hr 8 min 8 sec) 
Heartbeat CPU  0 instructions:  170000003 cycles:  178650066 heartbeat IPC: 0.66545 cumulative IPC: 0.69509 (Simulation time: 0 hr 8 min 12 sec) 
Heartbeat CPU  0 instructions:  171000002 cycles:  180083116 heartbeat IPC: 0.69781 cumulative IPC: 0.69513 (Simulation time: 0 hr 8 min 15 sec) 
Heartbeat CPU  0 instructions:  172000000 cycles:  181532176 heartbeat IPC: 0.69010 cumulative IPC: 0.69506 (Simulation time: 0 hr 8 min 18 sec) 
Heartbeat CPU  0 instructions:  173000002 cycles:  182962148 heartbeat IPC: 0.69932 cumulative IPC: 0.69512 (Simulation time: 0 hr 8 min 21 sec) 
Heartbeat CPU  0 instructions:  174000000 cycles:  184379253 heartbeat IPC: 0.70566 cumulative IPC: 0.69526 (Simulation time: 0 hr 8 min 24 sec) 
Heartbeat CPU  0 instructions:  175000001 cycles:  185800169 heartbeat IPC: 0.70377 cumulative IPC: 0.69537 (Simulation time: 0 hr 8 min 27 sec) 
Heartbeat CPU  0 instructions:  176000000 cycles:  187221124 heartbeat IPC: 0.70375 cumulative IPC: 0.69548 (Simulation time: 0 hr 8 min 31 sec) 
Heartbeat CPU  0 instructions:  177000001 cycles:  188681300 heartbeat IPC: 0.68485 cumulative IPC: 0.69534 (Simulation time: 0 hr 8 min 34 sec) 
Heartbeat CPU  0 instructions:  178000000 cycles:  190131106 heartbeat IPC: 0.68975 cumulative IPC: 0.69527 (Simulation time: 0 hr 8 min 37 sec) 
Heartbeat CPU  0 instructions:  179000002 cycles:  191600105 heartbeat IPC: 0.68074 cumulative IPC: 0.69508 (Simulation time: 0 hr 8 min 40 sec) 
Heartbeat CPU  0 instructions:  180000000 cycles:  193026817 heartbeat IPC: 0.70091 cumulative IPC: 0.69515 (Simulation time: 0 hr 8 min 43 sec) 
Heartbeat CPU  0 instructions:  181000002 cycles:  194472931 heartbeat IPC: 0.69151 cumulative IPC: 0.69511 (Simulation time: 0 hr 8 min 46 sec) 
Heartbeat CPU  0 instructions:  182000003 cycles:  195906907 heartbeat IPC: 0.69736 cumulative IPC: 0.69514 (Simulation time: 0 hr 8 min 49 sec) 
Heartbeat CPU  0 instructions:  183000001 cycles:  197342825 heartbeat IPC: 0.69642 cumulative IPC: 0.69515 (Simulation time: 0 hr 8 min 53 sec) 
Heartbeat CPU  0 instructions:  184000000 cycles:  198795078 heartbeat IPC: 0.68858 cumulative IPC: 0.69507 (Simulation time: 0 hr 8 min 56 sec) 
Heartbeat CPU  0 instructions:  185000003 cycles:  200265507 heartbeat IPC: 0.68008 cumulative IPC: 0.69489 (Simulation time: 0 hr 8 min 59 sec) 
Heartbeat CPU  0 instructions:  186000000 cycles:  201690430 heartbeat IPC: 0.70179 cumulative IPC: 0.69497 (Simulation time: 0 hr 9 min 2 sec) 
Heartbeat CPU  0 instructions:  187000000 cycles:  203141418 heartbeat IPC: 0.68919 cumulative IPC: 0.69490 (Simulation time: 0 hr 9 min 5 sec) 
Heartbeat CPU  0 instructions:  188000000 cycles:  204632171 heartbeat IPC: 0.67080 cumulative IPC: 0.69462 (Simulation time: 0 hr 9 min 8 sec) 
Heartbeat CPU  0 instructions:  189000001 cycles:  206120540 heartbeat IPC: 0.67188 cumulative IPC: 0.69436 (Simulation time: 0 hr 9 min 12 sec) 
Heartbeat CPU  0 instructions:  190000003 cycles:  207560316 heartbeat IPC: 0.69455 cumulative IPC: 0.69436 (Simulation time: 0 hr 9 min 15 sec) 
Heartbeat CPU  0 instructions:  191000002 cycles:  208990889 heartbeat IPC: 0.69902 cumulative IPC: 0.69441 (Simulation time: 0 hr 9 min 18 sec) 
Heartbeat CPU  0 instructions:  192000000 cycles:  210469683 heartbeat IPC: 0.67623 cumulative IPC: 0.69421 (Simulation time: 0 hr 9 min 21 sec) 
Heartbeat CPU  0 instructions:  193000002 cycles:  211910885 heartbeat IPC: 0.69387 cumulative IPC: 0.69420 (Simulation time: 0 hr 9 min 24 sec) 
Heartbeat CPU  0 instructions:  194000003 cycles:  213378041 heartbeat IPC: 0.68159 cumulative IPC: 0.69407 (Simulation time: 0 hr 9 min 27 sec) 
Heartbeat CPU  0 instructions:  195000001 cycles:  214805698 heartbeat IPC: 0.70045 cumulative IPC: 0.69413 (Simulation time: 0 hr 9 min 30 sec) 
Heartbeat CPU  0 instructions:  196000000 cycles:  216250717 heartbeat IPC: 0.69203 cumulative IPC: 0.69411 (Simulation time: 0 hr 9 min 33 sec) 
Heartbeat CPU  0 instructions:  197000001 cycles:  217726375 heartbeat IPC: 0.67766 cumulative IPC: 0.69394 (Simulation time: 0 hr 9 min 37 sec) 
Heartbeat CPU  0 instructions:  198000000 cycles:  219180268 heartbeat IPC: 0.68781 cumulative IPC: 0.69387 (Simulation time: 0 hr 9 min 40 sec) 
Heartbeat CPU  0 instructions:  199000002 cycles:  220646886 heartbeat IPC: 0.68184 cumulative IPC: 0.69375 (Simulation time: 0 hr 9 min 43 sec) 
Heartbeat CPU  0 instructions:  200000000 cycles:  222097880 heartbeat IPC: 0.68918 cumulative IPC: 0.69370 (Simulation time: 0 hr 9 min 47 sec) 
Heartbeat CPU  0 instructions:  201000001 cycles:  223554101 heartbeat IPC: 0.68671 cumulative IPC: 0.69363 (Simulation time: 0 hr 9 min 50 sec) 
Heartbeat CPU  0 instructions:  202000003 cycles:  224983217 heartbeat IPC: 0.69973 cumulative IPC: 0.69369 (Simulation time: 0 hr 9 min 54 sec) 
Heartbeat CPU  0 instructions:  203000001 cycles:  226421546 heartbeat IPC: 0.69525 cumulative IPC: 0.69371 (Simulation time: 0 hr 9 min 57 sec) 
Heartbeat CPU  0 instructions:  204000000 cycles:  227850101 heartbeat IPC: 0.70001 cumulative IPC: 0.69377 (Simulation time: 0 hr 10 min 1 sec) 
Heartbeat CPU  0 instructions:  205000001 cycles:  229269663 heartbeat IPC: 0.70444 cumulative IPC: 0.69387 (Simulation time: 0 hr 10 min 4 sec) 
Heartbeat CPU  0 instructions:  206000000 cycles:  230717954 heartbeat IPC: 0.69047 cumulative IPC: 0.69384 (Simulation time: 0 hr 10 min 7 sec) 
Heartbeat CPU  0 instructions:  207000001 cycles:  232176552 heartbeat IPC: 0.68559 cumulative IPC: 0.69376 (Simulation time: 0 hr 10 min 11 sec) 
Heartbeat CPU  0 instructions:  208000000 cycles:  233603562 heartbeat IPC: 0.70077 cumulative IPC: 0.69382 (Simulation time: 0 hr 10 min 14 sec) 
Heartbeat CPU  0 instructions:  209000001 cycles:  235033693 heartbeat IPC: 0.69924 cumulative IPC: 0.69387 (Simulation time: 0 hr 10 min 17 sec) 
Heartbeat CPU  0 instructions:  210000000 cycles:  236489933 heartbeat IPC: 0.68670 cumulative IPC: 0.69381 (Simulation time: 0 hr 10 min 20 sec) 
Heartbeat CPU  0 instructions:  211000002 cycles:  237955853 heartbeat IPC: 0.68217 cumulative IPC: 0.69370 (Simulation time: 0 hr 10 min 24 sec) 
Heartbeat CPU  0 instructions:  212000000 cycles:  239395218 heartbeat IPC: 0.69475 cumulative IPC: 0.69371 (Simulation time: 0 hr 10 min 27 sec) 
Heartbeat CPU  0 instructions:  213000000 cycles:  240848528 heartbeat IPC: 0.68808 cumulative IPC: 0.69366 (Simulation time: 0 hr 10 min 30 sec) 
Heartbeat CPU  0 instructions:  214000003 cycles:  242317480 heartbeat IPC: 0.68076 cumulative IPC: 0.69354 (Simulation time: 0 hr 10 min 33 sec) 
Heartbeat CPU  0 instructions:  215000001 cycles:  243767206 heartbeat IPC: 0.68978 cumulative IPC: 0.69351 (Simulation time: 0 hr 10 min 37 sec) 
Heartbeat CPU  0 instructions:  216000000 cycles:  245213092 heartbeat IPC: 0.69162 cumulative IPC: 0.69349 (Simulation time: 0 hr 10 min 40 sec) 
Heartbeat CPU  0 instructions:  217000003 cycles:  246656456 heartbeat IPC: 0.69283 cumulative IPC: 0.69349 (Simulation time: 0 hr 10 min 43 sec) 
Heartbeat CPU  0 instructions:  218000000 cycles:  248138777 heartbeat IPC: 0.67462 cumulative IPC: 0.69332 (Simulation time: 0 hr 10 min 46 sec) 
Heartbeat CPU  0 instructions:  219000002 cycles:  249568624 heartbeat IPC: 0.69938 cumulative IPC: 0.69338 (Simulation time: 0 hr 10 min 49 sec) 
Heartbeat CPU  0 instructions:  220000000 cycles:  251006344 heartbeat IPC: 0.69554 cumulative IPC: 0.69339 (Simulation time: 0 hr 10 min 53 sec) 
Heartbeat CPU  0 instructions:  221000001 cycles:  252478301 heartbeat IPC: 0.67937 cumulative IPC: 0.69327 (Simulation time: 0 hr 10 min 56 sec) 
Heartbeat CPU  0 instructions:  222000003 cycles:  253941550 heartbeat IPC: 0.68341 cumulative IPC: 0.69319 (Simulation time: 0 hr 10 min 59 sec) 
Heartbeat CPU  0 instructions:  223000001 cycles:  255385871 heartbeat IPC: 0.69237 cumulative IPC: 0.69319 (Simulation time: 0 hr 11 min 2 sec) 
Heartbeat CPU  0 instructions:  224000000 cycles:  256835941 heartbeat IPC: 0.68962 cumulative IPC: 0.69316 (Simulation time: 0 hr 11 min 6 sec) 
Heartbeat CPU  0 instructions:  225000002 cycles:  258288542 heartbeat IPC: 0.68842 cumulative IPC: 0.69312 (Simulation time: 0 hr 11 min 9 sec) 
Heartbeat CPU  0 instructions:  226000000 cycles:  259741476 heartbeat IPC: 0.68826 cumulative IPC: 0.69308 (Simulation time: 0 hr 11 min 12 sec) 
Heartbeat CPU  0 instructions:  227000001 cycles:  261196938 heartbeat IPC: 0.68707 cumulative IPC: 0.69303 (Simulation time: 0 hr 11 min 15 sec) 
Heartbeat CPU  0 instructions:  228000000 cycles:  262637677 heartbeat IPC: 0.69409 cumulative IPC: 0.69304 (Simulation time: 0 hr 11 min 19 sec) 
Heartbeat CPU  0 instructions:  229000001 cycles:  264117933 heartbeat IPC: 0.67556 cumulative IPC: 0.69290 (Simulation time: 0 hr 11 min 22 sec) 
Heartbeat CPU  0 instructions:  230000002 cycles:  265546621 heartbeat IPC: 0.69994 cumulative IPC: 0.69296 (Simulation time: 0 hr 11 min 25 sec) 
Heartbeat CPU  0 instructions:  231000003 cycles:  266978355 heartbeat IPC: 0.69845 cumulative IPC: 0.69300 (Simulation time: 0 hr 11 min 28 sec) 
Heartbeat CPU  0 instructions:  232000000 cycles:  268442968 heartbeat IPC: 0.68277 cumulative IPC: 0.69292 (Simulation time: 0 hr 11 min 31 sec) 
Heartbeat CPU  0 instructions:  233000001 cycles:  269917835 heartbeat IPC: 0.67803 cumulative IPC: 0.69280 (Simulation time: 0 hr 11 min 35 sec) 
Heartbeat CPU  0 instructions:  234000003 cycles:  271376560 heartbeat IPC: 0.68553 cumulative IPC: 0.69275 (Simulation time: 0 hr 11 min 38 sec) 
Heartbeat CPU  0 instructions:  235000001 cycles:  272802390 heartbeat IPC: 0.70134 cumulative IPC: 0.69281 (Simulation time: 0 hr 11 min 41 sec) 
Heartbeat CPU  0 instructions:  236000000 cycles:  274251039 heartbeat IPC: 0.69030 cumulative IPC: 0.69279 (Simulation time: 0 hr 11 min 44 sec) 
Heartbeat CPU  0 instructions:  237000001 cycles:  275693443 heartbeat IPC: 0.69329 cumulative IPC: 0.69280 (Simulation time: 0 hr 11 min 47 sec) 
Heartbeat CPU  0 instructions:  238000002 cycles:  277120215 heartbeat IPC: 0.70088 cumulative IPC: 0.69286 (Simulation time: 0 hr 11 min 51 sec) 
Heartbeat CPU  0 instructions:  239000002 cycles:  278556038 heartbeat IPC: 0.69646 cumulative IPC: 0.69288 (Simulation time: 0 hr 11 min 54 sec) 
Heartbeat CPU  0 instructions:  240000000 cycles:  280018672 heartbeat IPC: 0.68370 cumulative IPC: 0.69281 (Simulation time: 0 hr 11 min 57 sec) 
Heartbeat CPU  0 instructions:  241000001 cycles:  281467149 heartbeat IPC: 0.69038 cumulative IPC: 0.69280 (Simulation time: 0 hr 12 min 0 sec) 
Heartbeat CPU  0 instructions:  242000000 cycles:  282925946 heartbeat IPC: 0.68550 cumulative IPC: 0.69275 (Simulation time: 0 hr 12 min 3 sec) 
Heartbeat CPU  0 instructions:  243000002 cycles:  284366691 heartbeat IPC: 0.69409 cumulative IPC: 0.69275 (Simulation time: 0 hr 12 min 6 sec) 
Heartbeat CPU  0 instructions:  244000000 cycles:  285839907 heartbeat IPC: 0.67879 cumulative IPC: 0.69266 (Simulation time: 0 hr 12 min 10 sec) 
Heartbeat CPU  0 instructions:  245000000 cycles:  287281127 heartbeat IPC: 0.69386 cumulative IPC: 0.69266 (Simulation time: 0 hr 12 min 13 sec) 
Heartbeat CPU  0 instructions:  246000003 cycles:  288745132 heartbeat IPC: 0.68306 cumulative IPC: 0.69260 (Simulation time: 0 hr 12 min 18 sec) 
Heartbeat CPU  0 instructions:  247000001 cycles:  290179705 heartbeat IPC: 0.69707 cumulative IPC: 0.69263 (Simulation time: 0 hr 12 min 21 sec) 
Heartbeat CPU  0 instructions:  248000000 cycles:  291606219 heartbeat IPC: 0.70101 cumulative IPC: 0.69268 (Simulation time: 0 hr 12 min 24 sec) 
Heartbeat CPU  0 instructions:  249000001 cycles:  293070677 heartbeat IPC: 0.68285 cumulative IPC: 0.69262 (Simulation time: 0 hr 12 min 28 sec) 
Heartbeat CPU  0 instructions:  250000001 cycles:  294515593 heartbeat IPC: 0.69208 cumulative IPC: 0.69261 (Simulation time: 0 hr 12 min 31 sec) 
Heartbeat CPU  0 instructions:  251000001 cycles:  296587511 heartbeat IPC: 0.48264 cumulative IPC: 0.69062 (Simulation time: 0 hr 12 min 34 sec) 
Heartbeat CPU  0 instructions:  252000000 cycles:  298309775 heartbeat IPC: 0.58063 cumulative IPC: 0.68976 (Simulation time: 0 hr 12 min 36 sec) 
Heartbeat CPU  0 instructions:  253000000 cycles:  299872771 heartbeat IPC: 0.63980 cumulative IPC: 0.68941 (Simulation time: 0 hr 12 min 39 sec) 
Heartbeat CPU  0 instructions:  254000003 cycles:  301333032 heartbeat IPC: 0.68481 cumulative IPC: 0.68938 (Simulation time: 0 hr 12 min 42 sec) 
Heartbeat CPU  0 instructions:  255000002 cycles:  302787551 heartbeat IPC: 0.68751 cumulative IPC: 0.68937 (Simulation time: 0 hr 12 min 44 sec) 
Heartbeat CPU  0 instructions:  256000000 cycles:  307653729 heartbeat IPC: 0.20550 cumulative IPC: 0.67912 (Simulation time: 0 hr 12 min 48 sec) 
Heartbeat CPU  0 instructions:  257000000 cycles:  309366500 heartbeat IPC: 0.58385 cumulative IPC: 0.67841 (Simulation time: 0 hr 12 min 51 sec) 
Heartbeat CPU  0 instructions:  258000001 cycles:  310913947 heartbeat IPC: 0.64623 cumulative IPC: 0.67820 (Simulation time: 0 hr 12 min 53 sec) 
Heartbeat CPU  0 instructions:  259000002 cycles:  312368441 heartbeat IPC: 0.68753 cumulative IPC: 0.67826 (Simulation time: 0 hr 12 min 56 sec) 
Heartbeat CPU  0 instructions:  260000000 cycles:  313822483 heartbeat IPC: 0.68774 cumulative IPC: 0.67832 (Simulation time: 0 hr 12 min 58 sec) 
Heartbeat CPU  0 instructions:  261000000 cycles:  318057465 heartbeat IPC: 0.23613 cumulative IPC: 0.67052 (Simulation time: 0 hr 13 min 1 sec) 
Heartbeat CPU  0 instructions:  262000003 cycles:  319772381 heartbeat IPC: 0.58312 cumulative IPC: 0.66990 (Simulation time: 0 hr 13 min 4 sec) 
Heartbeat CPU  0 instructions:  263000001 cycles:  321331408 heartbeat IPC: 0.64142 cumulative IPC: 0.66972 (Simulation time: 0 hr 13 min 6 sec) 
Heartbeat CPU  0 instructions:  264000000 cycles:  322785210 heartbeat IPC: 0.68785 cumulative IPC: 0.66982 (Simulation time: 0 hr 13 min 9 sec) 
Heartbeat CPU  0 instructions:  265000001 cycles:  324239125 heartbeat IPC: 0.68780 cumulative IPC: 0.66993 (Simulation time: 0 hr 13 min 11 sec) 
Heartbeat CPU  0 instructions:  266000001 cycles:  328467986 heartbeat IPC: 0.23647 cumulative IPC: 0.66261 (Simulation time: 0 hr 13 min 15 sec) 
Heartbeat CPU  0 instructions:  267000003 cycles:  330154023 heartbeat IPC: 0.59311 cumulative IPC: 0.66215 (Simulation time: 0 hr 13 min 17 sec) 
Heartbeat CPU  0 instructions:  268000000 cycles:  331715065 heartbeat IPC: 0.64060 cumulative IPC: 0.66201 (Simulation time: 0 hr 13 min 20 sec) 
Heartbeat CPU  0 instructions:  269000002 cycles:  333166223 heartbeat IPC: 0.68911 cumulative IPC: 0.66217 (Simulation time: 0 hr 13 min 22 sec) 
Heartbeat CPU  0 instructions:  270000003 cycles:  334617316 heartbeat IPC: 0.68914 cumulative IPC: 0.66232 (Simulation time: 0 hr 13 min 25 sec) 
Heartbeat CPU  0 instructions:  271000000 cycles:  339571510 heartbeat IPC: 0.20185 cumulative IPC: 0.65360 (Simulation time: 0 hr 13 min 28 sec) 
Heartbeat CPU  0 instructions:  272000000 cycles:  341262810 heartbeat IPC: 0.59126 cumulative IPC: 0.65320 (Simulation time: 0 hr 13 min 31 sec) 
Heartbeat CPU  0 instructions:  273000000 cycles:  342827978 heartbeat IPC: 0.63891 cumulative IPC: 0.65312 (Simulation time: 0 hr 13 min 33 sec) 
Heartbeat CPU  0 instructions:  274000001 cycles:  344280911 heartbeat IPC: 0.68826 cumulative IPC: 0.65331 (Simulation time: 0 hr 13 min 36 sec) 
Heartbeat CPU  0 instructions:  275000000 cycles:  345732694 heartbeat IPC: 0.68881 cumulative IPC: 0.65350 (Simulation time: 0 hr 13 min 38 sec) 
Heartbeat CPU  0 instructions:  276000000 cycles:  347427609 heartbeat IPC: 0.59000 cumulative IPC: 0.65310 (Simulation time: 0 hr 13 min 40 sec) 
Heartbeat CPU  0 instructions:  277000000 cycles:  349084214 heartbeat IPC: 0.60364 cumulative IPC: 0.65280 (Simulation time: 0 hr 13 min 43 sec) 
Heartbeat CPU  0 instructions:  278000000 cycles:  350650464 heartbeat IPC: 0.63847 cumulative IPC: 0.65272 (Simulation time: 0 hr 13 min 45 sec) 
Heartbeat CPU  0 instructions:  279000000 cycles:  352101836 heartbeat IPC: 0.68900 cumulative IPC: 0.65291 (Simulation time: 0 hr 13 min 48 sec) 
Heartbeat CPU  0 instructions:  280000000 cycles:  353552952 heartbeat IPC: 0.68912 cumulative IPC: 0.65310 (Simulation time: 0 hr 13 min 50 sec) 
Heartbeat CPU  0 instructions:  281000000 cycles:  355177479 heartbeat IPC: 0.61556 cumulative IPC: 0.65288 (Simulation time: 0 hr 13 min 52 sec) 
Heartbeat CPU  0 instructions:  282000000 cycles:  356839743 heartbeat IPC: 0.60159 cumulative IPC: 0.65257 (Simulation time: 0 hr 13 min 55 sec) 
Heartbeat CPU  0 instructions:  283000001 cycles:  358409451 heartbeat IPC: 0.63706 cumulative IPC: 0.65249 (Simulation time: 0 hr 13 min 58 sec) 
Heartbeat CPU  0 instructions:  284000000 cycles:  359861056 heartbeat IPC: 0.68889 cumulative IPC: 0.65268 (Simulation time: 0 hr 14 min 0 sec) 
Heartbeat CPU  0 instructions:  285000000 cycles:  361312566 heartbeat IPC: 0.68894 cumulative IPC: 0.65286 (Simulation time: 0 hr 14 min 2 sec) 
Heartbeat CPU  0 instructions:  286000002 cycles:  362842499 heartbeat IPC: 0.65362 cumulative IPC: 0.65286 (Simulation time: 0 hr 14 min 5 sec) 
Heartbeat CPU  0 instructions:  287000000 cycles:  364512784 heartbeat IPC: 0.59870 cumulative IPC: 0.65255 (Simulation time: 0 hr 14 min 7 sec) 
Heartbeat CPU  0 instructions:  288000000 cycles:  366074481 heartbeat IPC: 0.64033 cumulative IPC: 0.65248 (Simulation time: 0 hr 14 min 10 sec) 
Heartbeat CPU  0 instructions:  289000001 cycles:  367527600 heartbeat IPC: 0.68818 cumulative IPC: 0.65266 (Simulation time: 0 hr 14 min 12 sec) 
Heartbeat CPU  0 instructions:  290000001 cycles:  368980702 heartbeat IPC: 0.68818 cumulative IPC: 0.65284 (Simulation time: 0 hr 14 min 15 sec) 
Heartbeat CPU  0 instructions:  291000001 cycles:  370515291 heartbeat IPC: 0.65164 cumulative IPC: 0.65283 (Simulation time: 0 hr 14 min 17 sec) 
Heartbeat CPU  0 instructions:  292000000 cycles:  372146881 heartbeat IPC: 0.61290 cumulative IPC: 0.65261 (Simulation time: 0 hr 14 min 20 sec) 
Heartbeat CPU  0 instructions:  293000001 cycles:  373860270 heartbeat IPC: 0.58364 cumulative IPC: 0.65221 (Simulation time: 0 hr 14 min 23 sec) 
Heartbeat CPU  0 instructions:  294000003 cycles:  375573632 heartbeat IPC: 0.58365 cumulative IPC: 0.65182 (Simulation time: 0 hr 14 min 27 sec) 
Heartbeat CPU  0 instructions:  295000003 cycles:  377264365 heartbeat IPC: 0.59146 cumulative IPC: 0.65148 (Simulation time: 0 hr 14 min 30 sec) 
Heartbeat CPU  0 instructions:  296000000 cycles:  378791863 heartbeat IPC: 0.65466 cumulative IPC: 0.65149 (Simulation time: 0 hr 14 min 33 sec) 
Heartbeat CPU  0 instructions:  297000001 cycles:  380508369 heartbeat IPC: 0.58258 cumulative IPC: 0.65110 (Simulation time: 0 hr 14 min 36 sec) 
Heartbeat CPU  0 instructions:  298000002 cycles:  382224649 heartbeat IPC: 0.58266 cumulative IPC: 0.65072 (Simulation time: 0 hr 14 min 39 sec) 
Heartbeat CPU  0 instructions:  299000002 cycles:  383880869 heartbeat IPC: 0.60378 cumulative IPC: 0.65046 (Simulation time: 0 hr 14 min 42 sec) 
Heartbeat CPU  0 instructions:  300000000 cycles:  385299920 heartbeat IPC: 0.70469 cumulative IPC: 0.65071 (Simulation time: 0 hr 14 min 44 sec) 
Heartbeat CPU  0 instructions:  301000000 cycles:  386751484 heartbeat IPC: 0.68891 cumulative IPC: 0.65089 (Simulation time: 0 hr 14 min 48 sec) 
Heartbeat CPU  0 instructions:  302000001 cycles:  388202882 heartbeat IPC: 0.68899 cumulative IPC: 0.65107 (Simulation time: 0 hr 14 min 50 sec) 
Heartbeat CPU  0 instructions:  303000000 cycles:  389654333 heartbeat IPC: 0.68897 cumulative IPC: 0.65125 (Simulation time: 0 hr 14 min 53 sec) 
Heartbeat CPU  0 instructions:  304000000 cycles:  391105699 heartbeat IPC: 0.68901 cumulative IPC: 0.65142 (Simulation time: 0 hr 14 min 56 sec) 
Heartbeat CPU  0 instructions:  305000003 cycles:  392662514 heartbeat IPC: 0.64234 cumulative IPC: 0.65138 (Simulation time: 0 hr 14 min 59 sec) 
Heartbeat CPU  0 instructions:  306000001 cycles:  394009483 heartbeat IPC: 0.74241 cumulative IPC: 0.65176 (Simulation time: 0 hr 15 min 1 sec) 
Heartbeat CPU  0 instructions:  307000001 cycles:  395462595 heartbeat IPC: 0.68818 cumulative IPC: 0.65193 (Simulation time: 0 hr 15 min 4 sec) 
Heartbeat CPU  0 instructions:  308000000 cycles:  396915701 heartbeat IPC: 0.68818 cumulative IPC: 0.65210 (Simulation time: 0 hr 15 min 6 sec) 
Heartbeat CPU  0 instructions:  309000003 cycles:  398368846 heartbeat IPC: 0.68816 cumulative IPC: 0.65226 (Simulation time: 0 hr 15 min 9 sec) 
Heartbeat CPU  0 instructions:  310000002 cycles:  399807629 heartbeat IPC: 0.69503 cumulative IPC: 0.65245 (Simulation time: 0 hr 15 min 12 sec) 
Heartbeat CPU  0 instructions:  311000000 cycles:  402870463 heartbeat IPC: 0.32649 cumulative IPC: 0.64938 (Simulation time: 0 hr 15 min 16 sec) 
Heartbeat CPU  0 instructions:  312000000 cycles:  405593627 heartbeat IPC: 0.36722 cumulative IPC: 0.64703 (Simulation time: 0 hr 15 min 20 sec) 
Heartbeat CPU  0 instructions:  313000002 cycles:  408306381 heartbeat IPC: 0.36863 cumulative IPC: 0.64475 (Simulation time: 0 hr 15 min 23 sec) 
Heartbeat CPU  0 instructions:  314000002 cycles:  411005682 heartbeat IPC: 0.37047 cumulative IPC: 0.64252 (Simulation time: 0 hr 15 min 27 sec) 
Heartbeat CPU  0 instructions:  315000001 cycles:  413693658 heartbeat IPC: 0.37203 cumulative IPC: 0.64036 (Simulation time: 0 hr 15 min 31 sec) 
Heartbeat CPU  0 instructions:  316000000 cycles:  416390917 heartbeat IPC: 0.37075 cumulative IPC: 0.63821 (Simulation time: 0 hr 15 min 35 sec) 
Heartbeat CPU  0 instructions:  317000002 cycles:  419088002 heartbeat IPC: 0.37077 cumulative IPC: 0.63610 (Simulation time: 0 hr 15 min 39 sec) 
Heartbeat CPU  0 instructions:  318000001 cycles:  421769014 heartbeat IPC: 0.37299 cumulative IPC: 0.63404 (Simulation time: 0 hr 15 min 42 sec) 
Heartbeat CPU  0 instructions:  319000003 cycles:  424469552 heartbeat IPC: 0.37030 cumulative IPC: 0.63199 (Simulation time: 0 hr 15 min 46 sec) 
Heartbeat CPU  0 instructions:  320000000 cycles:  427159726 heartbeat IPC: 0.37172 cumulative IPC: 0.62998 (Simulation time: 0 hr 15 min 50 sec) 
Heartbeat CPU  0 instructions:  321000001 cycles:  429840289 heartbeat IPC: 0.37306 cumulative IPC: 0.62803 (Simulation time: 0 hr 15 min 53 sec) 
Heartbeat CPU  0 instructions:  322000000 cycles:  432533929 heartbeat IPC: 0.37124 cumulative IPC: 0.62608 (Simulation time: 0 hr 15 min 57 sec) 
Heartbeat CPU  0 instructions:  323000001 cycles:  435332738 heartbeat IPC: 0.35730 cumulative IPC: 0.62397 (Simulation time: 0 hr 16 min 1 sec) 
Heartbeat CPU  0 instructions:  324000000 cycles:  438049803 heartbeat IPC: 0.36804 cumulative IPC: 0.62204 (Simulation time: 0 hr 16 min 5 sec) 
Heartbeat CPU  0 instructions:  325000003 cycles:  440769000 heartbeat IPC: 0.36776 cumulative IPC: 0.62013 (Simulation time: 0 hr 16 min 9 sec) 
Heartbeat CPU  0 instructions:  326000000 cycles:  443468354 heartbeat IPC: 0.37046 cumulative IPC: 0.61829 (Simulation time: 0 hr 16 min 13 sec) 
Heartbeat CPU  0 instructions:  327000003 cycles:  446161186 heartbeat IPC: 0.37136 cumulative IPC: 0.61648 (Simulation time: 0 hr 16 min 17 sec) 
Heartbeat CPU  0 instructions:  328000000 cycles:  448878293 heartbeat IPC: 0.36804 cumulative IPC: 0.61466 (Simulation time: 0 hr 16 min 21 sec) 
Heartbeat CPU  0 instructions:  329000001 cycles:  451573648 heartbeat IPC: 0.37101 cumulative IPC: 0.61291 (Simulation time: 0 hr 16 min 24 sec) 
Heartbeat CPU  0 instructions:  330000000 cycles:  454267967 heartbeat IPC: 0.37115 cumulative IPC: 0.61118 (Simulation time: 0 hr 16 min 28 sec) 
Heartbeat CPU  0 instructions:  331000003 cycles:  456985039 heartbeat IPC: 0.36804 cumulative IPC: 0.60943 (Simulation time: 0 hr 16 min 32 sec) 
Heartbeat CPU  0 instructions:  332000000 cycles:  459685321 heartbeat IPC: 0.37033 cumulative IPC: 0.60774 (Simulation time: 0 hr 16 min 36 sec) 
Heartbeat CPU  0 instructions:  333000000 cycles:  462380632 heartbeat IPC: 0.37101 cumulative IPC: 0.60608 (Simulation time: 0 hr 16 min 40 sec) 
Heartbeat CPU  0 instructions:  334000001 cycles:  465078265 heartbeat IPC: 0.37070 cumulative IPC: 0.60444 (Simulation time: 0 hr 16 min 43 sec) 
Heartbeat CPU  0 instructions:  335000001 cycles:  467582091 heartbeat IPC: 0.39939 cumulative IPC: 0.60312 (Simulation time: 0 hr 16 min 47 sec) 
Heartbeat CPU  0 instructions:  336000000 cycles:  469266991 heartbeat IPC: 0.59351 cumulative IPC: 0.60308 (Simulation time: 0 hr 16 min 50 sec) 
Heartbeat CPU  0 instructions:  337000002 cycles:  470947860 heartbeat IPC: 0.59493 cumulative IPC: 0.60305 (Simulation time: 0 hr 16 min 54 sec) 
Heartbeat CPU  0 instructions:  338000002 cycles:  472615708 heartbeat IPC: 0.59958 cumulative IPC: 0.60303 (Simulation time: 0 hr 16 min 57 sec) 
Heartbeat CPU  0 instructions:  339000001 cycles:  474289674 heartbeat IPC: 0.59738 cumulative IPC: 0.60301 (Simulation time: 0 hr 17 min 0 sec) 
Heartbeat CPU  0 instructions:  340000000 cycles:  475944490 heartbeat IPC: 0.60430 cumulative IPC: 0.60301 (Simulation time: 0 hr 17 min 3 sec) 
Heartbeat CPU  0 instructions:  341000002 cycles:  477587322 heartbeat IPC: 0.60871 cumulative IPC: 0.60304 (Simulation time: 0 hr 17 min 7 sec) 
Heartbeat CPU  0 instructions:  342000001 cycles:  479230721 heartbeat IPC: 0.60849 cumulative IPC: 0.60306 (Simulation time: 0 hr 17 min 10 sec) 
Heartbeat CPU  0 instructions:  343000003 cycles:  480906649 heartbeat IPC: 0.59669 cumulative IPC: 0.60303 (Simulation time: 0 hr 17 min 13 sec) 
Heartbeat CPU  0 instructions:  344000000 cycles:  482598382 heartbeat IPC: 0.59111 cumulative IPC: 0.60298 (Simulation time: 0 hr 17 min 16 sec) 
Heartbeat CPU  0 instructions:  345000001 cycles:  484260698 heartbeat IPC: 0.60157 cumulative IPC: 0.60298 (Simulation time: 0 hr 17 min 19 sec) 
Heartbeat CPU  0 instructions:  346000002 cycles:  485975783 heartbeat IPC: 0.58306 cumulative IPC: 0.60289 (Simulation time: 0 hr 17 min 22 sec) 
Heartbeat CPU  0 instructions:  347000000 cycles:  487846919 heartbeat IPC: 0.53443 cumulative IPC: 0.60258 (Simulation time: 0 hr 17 min 25 sec) 
Heartbeat CPU  0 instructions:  348000000 cycles:  489506433 heartbeat IPC: 0.60259 cumulative IPC: 0.60258 (Simulation time: 0 hr 17 min 29 sec) 
Heartbeat CPU  0 instructions:  349000001 cycles:  491153885 heartbeat IPC: 0.60700 cumulative IPC: 0.60260 (Simulation time: 0 hr 17 min 32 sec) 
Heartbeat CPU  0 instructions:  350000001 cycles:  492827559 heartbeat IPC: 0.59749 cumulative IPC: 0.60258 (Simulation time: 0 hr 17 min 35 sec) 
Heartbeat CPU  0 instructions:  351000000 cycles:  494506817 heartbeat IPC: 0.59550 cumulative IPC: 0.60255 (Simulation time: 0 hr 17 min 38 sec) 
Heartbeat CPU  0 instructions:  352000000 cycles:  496227178 heartbeat IPC: 0.58127 cumulative IPC: 0.60246 (Simulation time: 0 hr 17 min 41 sec) 
Heartbeat CPU  0 instructions:  353000002 cycles:  497942030 heartbeat IPC: 0.58314 cumulative IPC: 0.60238 (Simulation time: 0 hr 17 min 44 sec) 
Heartbeat CPU  0 instructions:  354000000 cycles:  499650124 heartbeat IPC: 0.58545 cumulative IPC: 0.60232 (Simulation time: 0 hr 17 min 47 sec) 
Heartbeat CPU  0 instructions:  355000000 cycles:  501323755 heartbeat IPC: 0.59750 cumulative IPC: 0.60230 (Simulation time: 0 hr 17 min 50 sec) 
Heartbeat CPU  0 instructions:  356000000 cycles:  503024132 heartbeat IPC: 0.58810 cumulative IPC: 0.60224 (Simulation time: 0 hr 17 min 54 sec) 
Heartbeat CPU  0 instructions:  357000001 cycles:  504725822 heartbeat IPC: 0.58765 cumulative IPC: 0.60218 (Simulation time: 0 hr 17 min 57 sec) 
Heartbeat CPU  0 instructions:  358000003 cycles:  506429356 heartbeat IPC: 0.58702 cumulative IPC: 0.60212 (Simulation time: 0 hr 18 min 0 sec) 
Heartbeat CPU  0 instructions:  359000002 cycles:  508072292 heartbeat IPC: 0.60867 cumulative IPC: 0.60215 (Simulation time: 0 hr 18 min 3 sec) 
Heartbeat CPU  0 instructions:  360000000 cycles:  509624610 heartbeat IPC: 0.64420 cumulative IPC: 0.60230 (Simulation time: 0 hr 18 min 6 sec) 
Heartbeat CPU  0 instructions:  361000000 cycles:  511011875 heartbeat IPC: 0.72084 cumulative IPC: 0.60268 (Simulation time: 0 hr 18 min 9 sec) 
Heartbeat CPU  0 instructions:  362000002 cycles:  512402807 heartbeat IPC: 0.71894 cumulative IPC: 0.60305 (Simulation time: 0 hr 18 min 12 sec) 
Heartbeat CPU  0 instructions:  363000002 cycles:  513790749 heartbeat IPC: 0.72049 cumulative IPC: 0.60342 (Simulation time: 0 hr 18 min 15 sec) 
Heartbeat CPU  0 instructions:  364000000 cycles:  515180749 heartbeat IPC: 0.71942 cumulative IPC: 0.60379 (Simulation time: 0 hr 18 min 18 sec) 
Heartbeat CPU  0 instructions:  365000002 cycles:  516569458 heartbeat IPC: 0.72009 cumulative IPC: 0.60416 (Simulation time: 0 hr 18 min 21 sec) 
Heartbeat CPU  0 instructions:  366000002 cycles:  517960257 heartbeat IPC: 0.71901 cumulative IPC: 0.60452 (Simulation time: 0 hr 18 min 24 sec) 
Heartbeat CPU  0 instructions:  367000001 cycles:  519347703 heartbeat IPC: 0.72075 cumulative IPC: 0.60489 (Simulation time: 0 hr 18 min 27 sec) 
Heartbeat CPU  0 instructions:  368000000 cycles:  520735879 heartbeat IPC: 0.72037 cumulative IPC: 0.60525 (Simulation time: 0 hr 18 min 30 sec) 
Heartbeat CPU  0 instructions:  369000000 cycles:  522124798 heartbeat IPC: 0.71998 cumulative IPC: 0.60561 (Simulation time: 0 hr 18 min 33 sec) 
Heartbeat CPU  0 instructions:  370000003 cycles:  523514693 heartbeat IPC: 0.71948 cumulative IPC: 0.60596 (Simulation time: 0 hr 18 min 36 sec) 
Heartbeat CPU  0 instructions:  371000001 cycles:  524912522 heartbeat IPC: 0.71539 cumulative IPC: 0.60631 (Simulation time: 0 hr 18 min 39 sec) 
Heartbeat CPU  0 instructions:  372000000 cycles:  526312121 heartbeat IPC: 0.71449 cumulative IPC: 0.60664 (Simulation time: 0 hr 18 min 42 sec) 
Heartbeat CPU  0 instructions:  373000000 cycles:  527710466 heartbeat IPC: 0.71513 cumulative IPC: 0.60698 (Simulation time: 0 hr 18 min 45 sec) 
Heartbeat CPU  0 instructions:  374000000 cycles:  529111922 heartbeat IPC: 0.71354 cumulative IPC: 0.60731 (Simulation time: 0 hr 18 min 48 sec) 
Heartbeat CPU  0 instructions:  375000001 cycles:  530668266 heartbeat IPC: 0.64253 cumulative IPC: 0.60743 (Simulation time: 0 hr 18 min 51 sec) 
Heartbeat CPU  0 instructions:  376000000 cycles:  532040588 heartbeat IPC: 0.72869 cumulative IPC: 0.60780 (Simulation time: 0 hr 18 min 54 sec) 
Heartbeat CPU  0 instructions:  377000001 cycles:  533409422 heartbeat IPC: 0.73055 cumulative IPC: 0.60817 (Simulation time: 0 hr 18 min 57 sec) 
Heartbeat CPU  0 instructions:  378000003 cycles:  534779553 heartbeat IPC: 0.72986 cumulative IPC: 0.60853 (Simulation time: 0 hr 19 min 0 sec) 
Heartbeat CPU  0 instructions:  379000000 cycles:  536150950 heartbeat IPC: 0.72918 cumulative IPC: 0.60890 (Simulation time: 0 hr 19 min 3 sec) 
Heartbeat CPU  0 instructions:  380000000 cycles:  537517487 heartbeat IPC: 0.73178 cumulative IPC: 0.60926 (Simulation time: 0 hr 19 min 6 sec) 
Heartbeat CPU  0 instructions:  381000003 cycles:  538884739 heartbeat IPC: 0.73140 cumulative IPC: 0.60962 (Simulation time: 0 hr 19 min 9 sec) 
Heartbeat CPU  0 instructions:  382000003 cycles:  540248814 heartbeat IPC: 0.73310 cumulative IPC: 0.60999 (Simulation time: 0 hr 19 min 12 sec) 
Heartbeat CPU  0 instructions:  383000003 cycles:  541615154 heartbeat IPC: 0.73188 cumulative IPC: 0.61035 (Simulation time: 0 hr 19 min 15 sec) 
Heartbeat CPU  0 instructions:  384000000 cycles:  542979415 heartbeat IPC: 0.73300 cumulative IPC: 0.61071 (Simulation time: 0 hr 19 min 18 sec) 
Heartbeat CPU  0 instructions:  385000003 cycles:  544347772 heartbeat IPC: 0.73081 cumulative IPC: 0.61106 (Simulation time: 0 hr 19 min 21 sec) 
Heartbeat CPU  0 instructions:  386000001 cycles:  545714765 heartbeat IPC: 0.73153 cumulative IPC: 0.61141 (Simulation time: 0 hr 19 min 24 sec) 
Heartbeat CPU  0 instructions:  387000003 cycles:  547088473 heartbeat IPC: 0.72796 cumulative IPC: 0.61175 (Simulation time: 0 hr 19 min 27 sec) 
Heartbeat CPU  0 instructions:  388000000 cycles:  548474404 heartbeat IPC: 0.72153 cumulative IPC: 0.61208 (Simulation time: 0 hr 19 min 30 sec) 
Heartbeat CPU  0 instructions:  389000003 cycles:  549855774 heartbeat IPC: 0.72392 cumulative IPC: 0.61240 (Simulation time: 0 hr 19 min 33 sec) 
Heartbeat CPU  0 instructions:  390000000 cycles:  551756346 heartbeat IPC: 0.52616 cumulative IPC: 0.61206 (Simulation time: 0 hr 19 min 36 sec) 
Heartbeat CPU  0 instructions:  391000003 cycles:  554437549 heartbeat IPC: 0.37297 cumulative IPC: 0.61071 (Simulation time: 0 hr 19 min 39 sec) 
Heartbeat CPU  0 instructions:  392000000 cycles:  557111786 heartbeat IPC: 0.37394 cumulative IPC: 0.60939 (Simulation time: 0 hr 19 min 43 sec) 
Heartbeat CPU  0 instructions:  393000003 cycles:  559777870 heartbeat IPC: 0.37508 cumulative IPC: 0.60809 (Simulation time: 0 hr 19 min 46 sec) 
Heartbeat CPU  0 instructions:  394000001 cycles:  562456890 heartbeat IPC: 0.37327 cumulative IPC: 0.60680 (Simulation time: 0 hr 19 min 50 sec) 
Heartbeat CPU  0 instructions:  395000002 cycles:  565120271 heartbeat IPC: 0.37546 cumulative IPC: 0.60553 (Simulation time: 0 hr 19 min 53 sec) 
Heartbeat CPU  0 instructions:  396000000 cycles:  567793962 heartbeat IPC: 0.37401 cumulative IPC: 0.60427 (Simulation time: 0 hr 19 min 57 sec) 
Heartbeat CPU  0 instructions:  397000002 cycles:  570463422 heartbeat IPC: 0.37461 cumulative IPC: 0.60302 (Simulation time: 0 hr 20 min 0 sec) 
Heartbeat CPU  0 instructions:  398000001 cycles:  573137953 heartbeat IPC: 0.37390 cumulative IPC: 0.60178 (Simulation time: 0 hr 20 min 4 sec) 
Heartbeat CPU  0 instructions:  399000001 cycles:  575820695 heartbeat IPC: 0.37275 cumulative IPC: 0.60055 (Simulation time: 0 hr 20 min 7 sec) 
Heartbeat CPU  0 instructions:  400000000 cycles:  578493289 heartbeat IPC: 0.37417 cumulative IPC: 0.59934 (Simulation time: 0 hr 20 min 11 sec) 
Heartbeat CPU  0 instructions:  401000001 cycles:  581174217 heartbeat IPC: 0.37301 cumulative IPC: 0.59814 (Simulation time: 0 hr 20 min 14 sec) 
Heartbeat CPU  0 instructions:  402000000 cycles:  583956685 heartbeat IPC: 0.35939 cumulative IPC: 0.59682 (Simulation time: 0 hr 20 min 18 sec) 
Heartbeat CPU  0 instructions:  403000000 cycles:  586633875 heartbeat IPC: 0.37353 cumulative IPC: 0.59565 (Simulation time: 0 hr 20 min 22 sec) 
Heartbeat CPU  0 instructions:  404000000 cycles:  589315461 heartbeat IPC: 0.37291 cumulative IPC: 0.59448 (Simulation time: 0 hr 20 min 25 sec) 
Heartbeat CPU  0 instructions:  405000000 cycles:  591987430 heartbeat IPC: 0.37426 cumulative IPC: 0.59334 (Simulation time: 0 hr 20 min 29 sec) 
Heartbeat CPU  0 instructions:  406000000 cycles:  594660614 heartbeat IPC: 0.37409 cumulative IPC: 0.59220 (Simulation time: 0 hr 20 min 32 sec) 
Heartbeat CPU  0 instructions:  407000002 cycles:  597345688 heartbeat IPC: 0.37243 cumulative IPC: 0.59107 (Simulation time: 0 hr 20 min 36 sec) 
Heartbeat CPU  0 instructions:  408000000 cycles:  600027918 heartbeat IPC: 0.37282 cumulative IPC: 0.58994 (Simulation time: 0 hr 20 min 39 sec) 
Heartbeat CPU  0 instructions:  409000002 cycles:  602696985 heartbeat IPC: 0.37466 cumulative IPC: 0.58885 (Simulation time: 0 hr 20 min 43 sec) 
Heartbeat CPU  0 instructions:  410000003 cycles:  605376992 heartbeat IPC: 0.37313 cumulative IPC: 0.58775 (Simulation time: 0 hr 20 min 46 sec) 
Heartbeat CPU  0 instructions:  411000000 cycles:  608045779 heartbeat IPC: 0.37470 cumulative IPC: 0.58668 (Simulation time: 0 hr 20 min 50 sec) 
Heartbeat CPU  0 instructions:  412000000 cycles:  610707356 heartbeat IPC: 0.37572 cumulative IPC: 0.58563 (Simulation time: 0 hr 20 min 53 sec) 
Heartbeat CPU  0 instructions:  413000002 cycles:  613389762 heartbeat IPC: 0.37280 cumulative IPC: 0.58456 (Simulation time: 0 hr 20 min 57 sec) 
Heartbeat CPU  0 instructions:  414000001 cycles:  616085197 heartbeat IPC: 0.37100 cumulative IPC: 0.58349 (Simulation time: 0 hr 21 min 0 sec) 
Heartbeat CPU  0 instructions:  415000000 cycles:  617667683 heartbeat IPC: 0.63192 cumulative IPC: 0.58363 (Simulation time: 0 hr 21 min 3 sec) 
Heartbeat CPU  0 instructions:  416000000 cycles:  619239963 heartbeat IPC: 0.63602 cumulative IPC: 0.58378 (Simulation time: 0 hr 21 min 6 sec) 
Heartbeat CPU  0 instructions:  417000003 cycles:  620807882 heartbeat IPC: 0.63779 cumulative IPC: 0.58394 (Simulation time: 0 hr 21 min 10 sec) 
Heartbeat CPU  0 instructions:  418000000 cycles:  622363605 heartbeat IPC: 0.64279 cumulative IPC: 0.58411 (Simulation time: 0 hr 21 min 13 sec) 
Heartbeat CPU  0 instructions:  419000002 cycles:  623951542 heartbeat IPC: 0.62975 cumulative IPC: 0.58424 (Simulation time: 0 hr 21 min 16 sec) 
Heartbeat CPU  0 instructions:  420000000 cycles:  625536643 heartbeat IPC: 0.63087 cumulative IPC: 0.58438 (Simulation time: 0 hr 21 min 19 sec) 
Heartbeat CPU  0 instructions:  421000000 cycles:  627097005 heartbeat IPC: 0.64088 cumulative IPC: 0.58454 (Simulation time: 0 hr 21 min 22 sec) 
Heartbeat CPU  0 instructions:  422000001 cycles:  628676514 heartbeat IPC: 0.63311 cumulative IPC: 0.58468 (Simulation time: 0 hr 21 min 25 sec) 
Heartbeat CPU  0 instructions:  423000003 cycles:  630258351 heartbeat IPC: 0.63218 cumulative IPC: 0.58481 (Simulation time: 0 hr 21 min 28 sec) 
Heartbeat CPU  0 instructions:  424000000 cycles:  631825095 heartbeat IPC: 0.63826 cumulative IPC: 0.58496 (Simulation time: 0 hr 21 min 31 sec) 
Heartbeat CPU  0 instructions:  425000003 cycles:  633393028 heartbeat IPC: 0.63778 cumulative IPC: 0.58511 (Simulation time: 0 hr 21 min 34 sec) 
Heartbeat CPU  0 instructions:  426000002 cycles:  634986830 heartbeat IPC: 0.62743 cumulative IPC: 0.58523 (Simulation time: 0 hr 21 min 38 sec) 
Heartbeat CPU  0 instructions:  427000003 cycles:  636772823 heartbeat IPC: 0.55991 cumulative IPC: 0.58515 (Simulation time: 0 hr 21 min 41 sec) 
Heartbeat CPU  0 instructions:  428000000 cycles:  638344117 heartbeat IPC: 0.63642 cumulative IPC: 0.58530 (Simulation time: 0 hr 21 min 44 sec) 
Heartbeat CPU  0 instructions:  429000001 cycles:  639903939 heartbeat IPC: 0.64110 cumulative IPC: 0.58545 (Simulation time: 0 hr 21 min 47 sec) 
Heartbeat CPU  0 instructions:  430000003 cycles:  641478048 heartbeat IPC: 0.63528 cumulative IPC: 0.58559 (Simulation time: 0 hr 21 min 50 sec) 
Heartbeat CPU  0 instructions:  431000001 cycles:  643013633 heartbeat IPC: 0.65122 cumulative IPC: 0.58577 (Simulation time: 0 hr 21 min 53 sec) 
Heartbeat CPU  0 instructions:  432000000 cycles:  644585807 heartbeat IPC: 0.63606 cumulative IPC: 0.58591 (Simulation time: 0 hr 21 min 56 sec) 
Heartbeat CPU  0 instructions:  433000001 cycles:  646142855 heartbeat IPC: 0.64224 cumulative IPC: 0.58606 (Simulation time: 0 hr 21 min 59 sec) 
Heartbeat CPU  0 instructions:  434000001 cycles:  647713302 heartbeat IPC: 0.63676 cumulative IPC: 0.58620 (Simulation time: 0 hr 22 min 3 sec) 
Heartbeat CPU  0 instructions:  435000000 cycles:  649262066 heartbeat IPC: 0.64568 cumulative IPC: 0.58636 (Simulation time: 0 hr 22 min 6 sec) 
Heartbeat CPU  0 instructions:  436000000 cycles:  650855065 heartbeat IPC: 0.62775 cumulative IPC: 0.58648 (Simulation time: 0 hr 22 min 9 sec) 
Heartbeat CPU  0 instructions:  437000000 cycles:  652425844 heartbeat IPC: 0.63663 cumulative IPC: 0.58662 (Simulation time: 0 hr 22 min 12 sec) 
Heartbeat CPU  0 instructions:  438000000 cycles:  654004533 heartbeat IPC: 0.63344 cumulative IPC: 0.58674 (Simulation time: 0 hr 22 min 16 sec) 
Heartbeat CPU  0 instructions:  439000002 cycles:  655628456 heartbeat IPC: 0.61579 cumulative IPC: 0.58683 (Simulation time: 0 hr 22 min 19 sec) 
Heartbeat CPU  0 instructions:  440000000 cycles:  657038130 heartbeat IPC: 0.70938 cumulative IPC: 0.58712 (Simulation time: 0 hr 22 min 22 sec) 
Heartbeat CPU  0 instructions:  441000001 cycles:  658439094 heartbeat IPC: 0.71379 cumulative IPC: 0.58743 (Simulation time: 0 hr 22 min 25 sec) 
Heartbeat CPU  0 instructions:  442000001 cycles:  659835356 heartbeat IPC: 0.71620 cumulative IPC: 0.58774 (Simulation time: 0 hr 22 min 28 sec) 
Heartbeat CPU  0 instructions:  443000000 cycles:  661235608 heartbeat IPC: 0.71416 cumulative IPC: 0.58804 (Simulation time: 0 hr 22 min 31 sec) 
Heartbeat CPU  0 instructions:  444000000 cycles:  662635334 heartbeat IPC: 0.71443 cumulative IPC: 0.58834 (Simulation time: 0 hr 22 min 34 sec) 
Heartbeat CPU  0 instructions:  445000000 cycles:  664035693 heartbeat IPC: 0.71410 cumulative IPC: 0.58865 (Simulation time: 0 hr 22 min 37 sec) 
Heartbeat CPU  0 instructions:  446000002 cycles:  665439691 heartbeat IPC: 0.71225 cumulative IPC: 0.58894 (Simulation time: 0 hr 22 min 41 sec) 
Heartbeat CPU  0 instructions:  447000000 cycles:  666841711 heartbeat IPC: 0.71326 cumulative IPC: 0.58924 (Simulation time: 0 hr 22 min 44 sec) 
Heartbeat CPU  0 instructions:  448000000 cycles:  668246139 heartbeat IPC: 0.71203 cumulative IPC: 0.58953 (Simulation time: 0 hr 22 min 47 sec) 
Heartbeat CPU  0 instructions:  449000003 cycles:  669651861 heartbeat IPC: 0.71138 cumulative IPC: 0.58982 (Simulation time: 0 hr 22 min 50 sec) 
Heartbeat CPU  0 instructions:  450000000 cycles:  671058301 heartbeat IPC: 0.71101 cumulative IPC: 0.59011 (Simulation time: 0 hr 22 min 53 sec) 
Heartbeat CPU  0 instructions:  451000003 cycles:  672469240 heartbeat IPC: 0.70875 cumulative IPC: 0.59039 (Simulation time: 0 hr 22 min 56 sec) 
Heartbeat CPU  0 instructions:  452000000 cycles:  673879470 heartbeat IPC: 0.70910 cumulative IPC: 0.59067 (Simulation time: 0 hr 22 min 59 sec) 
Heartbeat CPU  0 instructions:  453000003 cycles:  675298780 heartbeat IPC: 0.70457 cumulative IPC: 0.59094 (Simulation time: 0 hr 23 min 2 sec) 
Heartbeat CPU  0 instructions:  454000001 cycles:  676909651 heartbeat IPC: 0.62078 cumulative IPC: 0.59102 (Simulation time: 0 hr 23 min 5 sec) 
Heartbeat CPU  0 instructions:  455000003 cycles:  678319795 heartbeat IPC: 0.70915 cumulative IPC: 0.59130 (Simulation time: 0 hr 23 min 8 sec) 
Heartbeat CPU  0 instructions:  456000000 cycles:  679709955 heartbeat IPC: 0.71934 cumulative IPC: 0.59159 (Simulation time: 0 hr 23 min 12 sec) 
Caught signal: 2
