*************************************************
   ChampSim Multicore Out-of-Order Simulator
   Last compiled: Dec 11 2024 17:59:53
*************************************************
parsing config file: /home/functionmain/桌面/Pythia/config/mlop.ini

trace_0 /home/functionmain/桌面/Pythia/traces/459.GemsFDTD-1418B.champsimtrace.xz
adding L2C_PREFETCHER: MLOP
Initialize SHIP state
warmup_instructions 100000000
simulation_instructions 500000000
champsim_seed 272
measure_ipc 0
measure_ipc_epoch 1000
measure_dram_bw 1
measure_dram_bw_epoch 256
measure_cache_acc 1
measure_cache_acc_epoch 1024
l1d_perfect 0
l2c_perfect 0
llc_perfect 0
l1d_semi_perfect 0
l2c_semi_perfect 0
llc_semi_perfect 0
semi_perfect_cache_page_buffer_size 64

num_cpus 1
cpu_freq 4000
dram_io_freq 2400
page_size 4096
block_size 64
max_read_per_cycle 8
max_fill_per_cycle 1
dram_channels 1
log2_dram_channels 0
dram_ranks 1
dram_banks 8
dram_rows 65536
dram_columns 128
dram_row_size 8
dram_size 4096
dram_pages 1048576

fetch_width 6
decode_width 6
exec_width 4
lq_width 2
sq_width 2
retire_width 4
scheduler_size 128
branch_mispredict_penalty 20
rob_size 256
lq_size 72
sq_size 56
num_instr_destinations_sparc 4
num_instr_destinations 2
num_instr_sources 4

itlb_set 16
itlb_way 8
itlb_rq_size 16
itlb_wq_size 16
itlb_pq_size 0
itlb_mshr_size 8
itlb_latency 1

dtlb_set 16
dtlb_way 4
dtlb_rq_size 16
dtlb_wq_size 16
dtlb_pq_size 0
dtlb_mshr_size 8
dtlb_latency 1

stlb_set 128
stlb_way 12
stlb_rq_size 32
stlb_wq_size 32
stlb_pq_size 0
stlb_mshr_size 16
stlb_latency 8

l1i_size 32
l1i_set 64
l1i_way 8
l1i_rq_size 64
l1i_wq_size 64
l1i_pq_size 8
l1i_mshr_size 8
l1i_latency 1

l1d_size 32
l1d_set 64
l1d_way 8
l1d_rq_size 64
l1d_wq_size 64
l1d_pq_size 8
l1d_mshr_size 16
l1d_latency 4

l2c_size 256
l2c_set 512
l2c_way 8
l2c_rq_size 32
l2c_wq_size 32
l2c_pq_size 32
l2c_mshr_size 32
l2c_latency 10

llc_size 2048
llc_set 2048
llc_way 16
llc_rq_size 32
llc_wq_size 32
llc_pq_size 32
llc_mshr_size 64
llc_latency 20

dram_channel_width 8
dram_wq_size 64
dram_rq_size 64
tRP 15
tRCD 15
tCAS 12.5
dram_dbus_turn_around_time 30
dram_write_high_wm 56
dram_write_low_wm 48
min_dram_writes_per_switch 16
dram_mtps 2400
dram_dbus_return_time 13

mlop_pref_degree 16
mlop_num_updates 500
mlop_l1d_thresh 2
mlop_l2c_thresh 0.75
mlop_llc_thresh 0.3
mlop_debug_level 0
mlop_blocks_in_cache 4096
mlop_blocks_in_zone 64
mlop_amt_size 2048
mlop_PF_DEGREE 16
mlop_NUM_UPDATES 500
mlop_L1D_THRESH 1000
mlop_L2C_THRESH 375
mlop_LLC_THRESH 150
mlop_ORIGIN 63
mlop_MAX_OFFSET 63
mlop_MIN_OFFSET -63
mlop_ORIGIN 63
mlop_NUM_OFFSETS 127


Heartbeat CPU  0 instructions:    1000001 cycles:     778641 heartbeat IPC: 1.28429 cumulative IPC: 1.28429 (Simulation time: 0 hr 0 min 2 sec) 
Heartbeat CPU  0 instructions:    2000002 cycles:    1557345 heartbeat IPC: 1.28419 cumulative IPC: 1.28424 (Simulation time: 0 hr 0 min 5 sec) 
Heartbeat CPU  0 instructions:    3000003 cycles:    2335804 heartbeat IPC: 1.28459 cumulative IPC: 1.28436 (Simulation time: 0 hr 0 min 7 sec) 
Heartbeat CPU  0 instructions:    4000000 cycles:    3114433 heartbeat IPC: 1.28430 cumulative IPC: 1.28434 (Simulation time: 0 hr 0 min 10 sec) 
Heartbeat CPU  0 instructions:    5000001 cycles:    3893094 heartbeat IPC: 1.28426 cumulative IPC: 1.28433 (Simulation time: 0 hr 0 min 12 sec) 
Heartbeat CPU  0 instructions:    6000002 cycles:    4671679 heartbeat IPC: 1.28438 cumulative IPC: 1.28434 (Simulation time: 0 hr 0 min 15 sec) 
Heartbeat CPU  0 instructions:    7000003 cycles:    5450235 heartbeat IPC: 1.28443 cumulative IPC: 1.28435 (Simulation time: 0 hr 0 min 17 sec) 
Heartbeat CPU  0 instructions:    8000000 cycles:    6228503 heartbeat IPC: 1.28490 cumulative IPC: 1.28442 (Simulation time: 0 hr 0 min 20 sec) 
Heartbeat CPU  0 instructions:    9000002 cycles:    7007117 heartbeat IPC: 1.28434 cumulative IPC: 1.28441 (Simulation time: 0 hr 0 min 22 sec) 
Heartbeat CPU  0 instructions:   10000003 cycles:    7785656 heartbeat IPC: 1.28446 cumulative IPC: 1.28441 (Simulation time: 0 hr 0 min 25 sec) 
Heartbeat CPU  0 instructions:   11000000 cycles:    8564037 heartbeat IPC: 1.28471 cumulative IPC: 1.28444 (Simulation time: 0 hr 0 min 27 sec) 
Heartbeat CPU  0 instructions:   12000000 cycles:    9342407 heartbeat IPC: 1.28474 cumulative IPC: 1.28447 (Simulation time: 0 hr 0 min 30 sec) 
Heartbeat CPU  0 instructions:   13000003 cycles:   10121196 heartbeat IPC: 1.28405 cumulative IPC: 1.28443 (Simulation time: 0 hr 0 min 32 sec) 
Heartbeat CPU  0 instructions:   14000000 cycles:   10899718 heartbeat IPC: 1.28448 cumulative IPC: 1.28444 (Simulation time: 0 hr 0 min 35 sec) 
Heartbeat CPU  0 instructions:   15000001 cycles:   11678224 heartbeat IPC: 1.28451 cumulative IPC: 1.28444 (Simulation time: 0 hr 0 min 37 sec) 
Heartbeat CPU  0 instructions:   16000000 cycles:   12456969 heartbeat IPC: 1.28412 cumulative IPC: 1.28442 (Simulation time: 0 hr 0 min 40 sec) 
Heartbeat CPU  0 instructions:   17000003 cycles:   13235432 heartbeat IPC: 1.28459 cumulative IPC: 1.28443 (Simulation time: 0 hr 0 min 42 sec) 
Heartbeat CPU  0 instructions:   18000000 cycles:   14013777 heartbeat IPC: 1.28477 cumulative IPC: 1.28445 (Simulation time: 0 hr 0 min 45 sec) 
Heartbeat CPU  0 instructions:   19000003 cycles:   14792370 heartbeat IPC: 1.28437 cumulative IPC: 1.28445 (Simulation time: 0 hr 0 min 47 sec) 
Heartbeat CPU  0 instructions:   20000000 cycles:   15570855 heartbeat IPC: 1.28454 cumulative IPC: 1.28445 (Simulation time: 0 hr 0 min 49 sec) 
Heartbeat CPU  0 instructions:   21000003 cycles:   16349687 heartbeat IPC: 1.28398 cumulative IPC: 1.28443 (Simulation time: 0 hr 0 min 52 sec) 
Heartbeat CPU  0 instructions:   22000000 cycles:   17128132 heartbeat IPC: 1.28461 cumulative IPC: 1.28444 (Simulation time: 0 hr 0 min 54 sec) 
Heartbeat CPU  0 instructions:   23000003 cycles:   17906707 heartbeat IPC: 1.28440 cumulative IPC: 1.28444 (Simulation time: 0 hr 0 min 57 sec) 
Heartbeat CPU  0 instructions:   24000000 cycles:   18685462 heartbeat IPC: 1.28410 cumulative IPC: 1.28442 (Simulation time: 0 hr 0 min 59 sec) 
Heartbeat CPU  0 instructions:   25000001 cycles:   19463744 heartbeat IPC: 1.28488 cumulative IPC: 1.28444 (Simulation time: 0 hr 1 min 2 sec) 
Heartbeat CPU  0 instructions:   26000001 cycles:   20242203 heartbeat IPC: 1.28459 cumulative IPC: 1.28445 (Simulation time: 0 hr 1 min 4 sec) 
Heartbeat CPU  0 instructions:   27000002 cycles:   21020802 heartbeat IPC: 1.28436 cumulative IPC: 1.28444 (Simulation time: 0 hr 1 min 7 sec) 
Heartbeat CPU  0 instructions:   28000000 cycles:   21799320 heartbeat IPC: 1.28449 cumulative IPC: 1.28444 (Simulation time: 0 hr 1 min 9 sec) 
Heartbeat CPU  0 instructions:   29000001 cycles:   22577802 heartbeat IPC: 1.28455 cumulative IPC: 1.28445 (Simulation time: 0 hr 1 min 12 sec) 
Heartbeat CPU  0 instructions:   30000002 cycles:   23356485 heartbeat IPC: 1.28422 cumulative IPC: 1.28444 (Simulation time: 0 hr 1 min 14 sec) 
Heartbeat CPU  0 instructions:   31000003 cycles:   24135033 heartbeat IPC: 1.28444 cumulative IPC: 1.28444 (Simulation time: 0 hr 1 min 17 sec) 
Heartbeat CPU  0 instructions:   32000000 cycles:   24913512 heartbeat IPC: 1.28455 cumulative IPC: 1.28444 (Simulation time: 0 hr 1 min 19 sec) 
Heartbeat CPU  0 instructions:   33000003 cycles:   25692058 heartbeat IPC: 1.28445 cumulative IPC: 1.28444 (Simulation time: 0 hr 1 min 22 sec) 
Heartbeat CPU  0 instructions:   34000002 cycles:   26461205 heartbeat IPC: 1.30014 cumulative IPC: 1.28490 (Simulation time: 0 hr 1 min 24 sec) 
Heartbeat CPU  0 instructions:   35000001 cycles:   27243318 heartbeat IPC: 1.27859 cumulative IPC: 1.28472 (Simulation time: 0 hr 1 min 27 sec) 
Heartbeat CPU  0 instructions:   36000000 cycles:   28023959 heartbeat IPC: 1.28100 cumulative IPC: 1.28462 (Simulation time: 0 hr 1 min 29 sec) 
Heartbeat CPU  0 instructions:   37000000 cycles:   28804592 heartbeat IPC: 1.28101 cumulative IPC: 1.28452 (Simulation time: 0 hr 1 min 32 sec) 
Heartbeat CPU  0 instructions:   38000001 cycles:   29584936 heartbeat IPC: 1.28149 cumulative IPC: 1.28444 (Simulation time: 0 hr 1 min 34 sec) 
Heartbeat CPU  0 instructions:   39000003 cycles:   30365441 heartbeat IPC: 1.28122 cumulative IPC: 1.28435 (Simulation time: 0 hr 1 min 37 sec) 
Heartbeat CPU  0 instructions:   40000000 cycles:   31146319 heartbeat IPC: 1.28061 cumulative IPC: 1.28426 (Simulation time: 0 hr 1 min 39 sec) 
Heartbeat CPU  0 instructions:   41000000 cycles:   31927233 heartbeat IPC: 1.28055 cumulative IPC: 1.28417 (Simulation time: 0 hr 1 min 42 sec) 
Heartbeat CPU  0 instructions:   42000002 cycles:   32707653 heartbeat IPC: 1.28136 cumulative IPC: 1.28410 (Simulation time: 0 hr 1 min 44 sec) 
Heartbeat CPU  0 instructions:   43000000 cycles:   33487744 heartbeat IPC: 1.28190 cumulative IPC: 1.28405 (Simulation time: 0 hr 1 min 47 sec) 
Heartbeat CPU  0 instructions:   44000000 cycles:   34267167 heartbeat IPC: 1.28300 cumulative IPC: 1.28403 (Simulation time: 0 hr 1 min 49 sec) 
Heartbeat CPU  0 instructions:   45000000 cycles:   35046862 heartbeat IPC: 1.28255 cumulative IPC: 1.28400 (Simulation time: 0 hr 1 min 52 sec) 
Heartbeat CPU  0 instructions:   46000002 cycles:   35826476 heartbeat IPC: 1.28269 cumulative IPC: 1.28397 (Simulation time: 0 hr 1 min 54 sec) 
Heartbeat CPU  0 instructions:   47000001 cycles:   36605458 heartbeat IPC: 1.28373 cumulative IPC: 1.28396 (Simulation time: 0 hr 1 min 57 sec) 
Heartbeat CPU  0 instructions:   48000000 cycles:   37384282 heartbeat IPC: 1.28399 cumulative IPC: 1.28396 (Simulation time: 0 hr 1 min 59 sec) 
Heartbeat CPU  0 instructions:   49000001 cycles:   38164143 heartbeat IPC: 1.28228 cumulative IPC: 1.28393 (Simulation time: 0 hr 2 min 2 sec) 
Heartbeat CPU  0 instructions:   50000002 cycles:   38943938 heartbeat IPC: 1.28239 cumulative IPC: 1.28390 (Simulation time: 0 hr 2 min 4 sec) 
Heartbeat CPU  0 instructions:   51000000 cycles:   39722827 heartbeat IPC: 1.28388 cumulative IPC: 1.28390 (Simulation time: 0 hr 2 min 7 sec) 
Heartbeat CPU  0 instructions:   52000000 cycles:   40501760 heartbeat IPC: 1.28381 cumulative IPC: 1.28389 (Simulation time: 0 hr 2 min 9 sec) 
Heartbeat CPU  0 instructions:   53000002 cycles:   41282513 heartbeat IPC: 1.28082 cumulative IPC: 1.28384 (Simulation time: 0 hr 2 min 12 sec) 
Heartbeat CPU  0 instructions:   54000000 cycles:   42062922 heartbeat IPC: 1.28138 cumulative IPC: 1.28379 (Simulation time: 0 hr 2 min 14 sec) 
Heartbeat CPU  0 instructions:   55000003 cycles:   42842907 heartbeat IPC: 1.28208 cumulative IPC: 1.28376 (Simulation time: 0 hr 2 min 17 sec) 
Heartbeat CPU  0 instructions:   56000000 cycles:   43623177 heartbeat IPC: 1.28160 cumulative IPC: 1.28372 (Simulation time: 0 hr 2 min 19 sec) 
Heartbeat CPU  0 instructions:   57000001 cycles:   44404380 heartbeat IPC: 1.28008 cumulative IPC: 1.28366 (Simulation time: 0 hr 2 min 22 sec) 
Heartbeat CPU  0 instructions:   58000000 cycles:   45185010 heartbeat IPC: 1.28102 cumulative IPC: 1.28361 (Simulation time: 0 hr 2 min 24 sec) 
Heartbeat CPU  0 instructions:   59000001 cycles:   45965394 heartbeat IPC: 1.28142 cumulative IPC: 1.28357 (Simulation time: 0 hr 2 min 27 sec) 
Heartbeat CPU  0 instructions:   60000000 cycles:   46745905 heartbeat IPC: 1.28121 cumulative IPC: 1.28353 (Simulation time: 0 hr 2 min 29 sec) 
Heartbeat CPU  0 instructions:   61000003 cycles:   47526959 heartbeat IPC: 1.28033 cumulative IPC: 1.28348 (Simulation time: 0 hr 2 min 32 sec) 
Heartbeat CPU  0 instructions:   62000002 cycles:   48306178 heartbeat IPC: 1.28333 cumulative IPC: 1.28348 (Simulation time: 0 hr 2 min 34 sec) 
Heartbeat CPU  0 instructions:   63000002 cycles:   49085466 heartbeat IPC: 1.28322 cumulative IPC: 1.28348 (Simulation time: 0 hr 2 min 37 sec) 
Heartbeat CPU  0 instructions:   64000000 cycles:   49864630 heartbeat IPC: 1.28342 cumulative IPC: 1.28347 (Simulation time: 0 hr 2 min 39 sec) 
Heartbeat CPU  0 instructions:   65000002 cycles:   50644154 heartbeat IPC: 1.28284 cumulative IPC: 1.28347 (Simulation time: 0 hr 2 min 42 sec) 
Heartbeat CPU  0 instructions:   66000001 cycles:   51423026 heartbeat IPC: 1.28391 cumulative IPC: 1.28347 (Simulation time: 0 hr 2 min 44 sec) 
Heartbeat CPU  0 instructions:   67000003 cycles:   52201975 heartbeat IPC: 1.28378 cumulative IPC: 1.28348 (Simulation time: 0 hr 2 min 47 sec) 
Heartbeat CPU  0 instructions:   68000000 cycles:   52981904 heartbeat IPC: 1.28216 cumulative IPC: 1.28346 (Simulation time: 0 hr 2 min 49 sec) 
Heartbeat CPU  0 instructions:   69000002 cycles:   53761265 heartbeat IPC: 1.28311 cumulative IPC: 1.28345 (Simulation time: 0 hr 2 min 52 sec) 
Heartbeat CPU  0 instructions:   70000001 cycles:   54540952 heartbeat IPC: 1.28256 cumulative IPC: 1.28344 (Simulation time: 0 hr 2 min 54 sec) 
Heartbeat CPU  0 instructions:   71000003 cycles:   55320945 heartbeat IPC: 1.28207 cumulative IPC: 1.28342 (Simulation time: 0 hr 2 min 56 sec) 
Heartbeat CPU  0 instructions:   72000000 cycles:   56101168 heartbeat IPC: 1.28168 cumulative IPC: 1.28340 (Simulation time: 0 hr 2 min 59 sec) 
Heartbeat CPU  0 instructions:   73000000 cycles:   56882344 heartbeat IPC: 1.28012 cumulative IPC: 1.28335 (Simulation time: 0 hr 3 min 1 sec) 
Heartbeat CPU  0 instructions:   74000002 cycles:   57662922 heartbeat IPC: 1.28110 cumulative IPC: 1.28332 (Simulation time: 0 hr 3 min 4 sec) 
Heartbeat CPU  0 instructions:   75000000 cycles:   58444093 heartbeat IPC: 1.28013 cumulative IPC: 1.28328 (Simulation time: 0 hr 3 min 6 sec) 
Heartbeat CPU  0 instructions:   76000000 cycles:   59224766 heartbeat IPC: 1.28095 cumulative IPC: 1.28325 (Simulation time: 0 hr 3 min 9 sec) 
Heartbeat CPU  0 instructions:   77000003 cycles:   60004680 heartbeat IPC: 1.28220 cumulative IPC: 1.28323 (Simulation time: 0 hr 3 min 11 sec) 
Heartbeat CPU  0 instructions:   78000001 cycles:   60784884 heartbeat IPC: 1.28171 cumulative IPC: 1.28321 (Simulation time: 0 hr 3 min 14 sec) 
Heartbeat CPU  0 instructions:   79000001 cycles:   61566158 heartbeat IPC: 1.27996 cumulative IPC: 1.28317 (Simulation time: 0 hr 3 min 16 sec) 
Heartbeat CPU  0 instructions:   80000000 cycles:   62346332 heartbeat IPC: 1.28176 cumulative IPC: 1.28315 (Simulation time: 0 hr 3 min 19 sec) 
Heartbeat CPU  0 instructions:   81000001 cycles:   63125157 heartbeat IPC: 1.28399 cumulative IPC: 1.28317 (Simulation time: 0 hr 3 min 21 sec) 
Heartbeat CPU  0 instructions:   82000002 cycles:   63903712 heartbeat IPC: 1.28443 cumulative IPC: 1.28318 (Simulation time: 0 hr 3 min 24 sec) 
Heartbeat CPU  0 instructions:   83000000 cycles:   64684886 heartbeat IPC: 1.28012 cumulative IPC: 1.28314 (Simulation time: 0 hr 3 min 26 sec) 
Heartbeat CPU  0 instructions:   84000000 cycles:   65463960 heartbeat IPC: 1.28358 cumulative IPC: 1.28315 (Simulation time: 0 hr 3 min 29 sec) 
Heartbeat CPU  0 instructions:   85000002 cycles:   66242857 heartbeat IPC: 1.28387 cumulative IPC: 1.28316 (Simulation time: 0 hr 3 min 31 sec) 
Heartbeat CPU  0 instructions:   86000001 cycles:   67021882 heartbeat IPC: 1.28365 cumulative IPC: 1.28316 (Simulation time: 0 hr 3 min 34 sec) 
Heartbeat CPU  0 instructions:   87000001 cycles:   67801134 heartbeat IPC: 1.28328 cumulative IPC: 1.28316 (Simulation time: 0 hr 3 min 36 sec) 
Heartbeat CPU  0 instructions:   88000000 cycles:   68580317 heartbeat IPC: 1.28339 cumulative IPC: 1.28317 (Simulation time: 0 hr 3 min 39 sec) 
Heartbeat CPU  0 instructions:   89000001 cycles:   69360469 heartbeat IPC: 1.28180 cumulative IPC: 1.28315 (Simulation time: 0 hr 3 min 41 sec) 
Heartbeat CPU  0 instructions:   90000003 cycles:   70140681 heartbeat IPC: 1.28171 cumulative IPC: 1.28314 (Simulation time: 0 hr 3 min 44 sec) 
Heartbeat CPU  0 instructions:   91000001 cycles:   70920958 heartbeat IPC: 1.28159 cumulative IPC: 1.28312 (Simulation time: 0 hr 3 min 46 sec) 
Heartbeat CPU  0 instructions:   92000000 cycles:   71701577 heartbeat IPC: 1.28103 cumulative IPC: 1.28310 (Simulation time: 0 hr 3 min 49 sec) 
Heartbeat CPU  0 instructions:   93000002 cycles:   72482047 heartbeat IPC: 1.28128 cumulative IPC: 1.28308 (Simulation time: 0 hr 3 min 51 sec) 
Heartbeat CPU  0 instructions:   94000000 cycles:   73262439 heartbeat IPC: 1.28140 cumulative IPC: 1.28306 (Simulation time: 0 hr 3 min 54 sec) 
Heartbeat CPU  0 instructions:   95000001 cycles:   74042532 heartbeat IPC: 1.28190 cumulative IPC: 1.28305 (Simulation time: 0 hr 3 min 56 sec) 
Heartbeat CPU  0 instructions:   96000000 cycles:   74822950 heartbeat IPC: 1.28136 cumulative IPC: 1.28303 (Simulation time: 0 hr 3 min 59 sec) 
Heartbeat CPU  0 instructions:   97000002 cycles:   75604259 heartbeat IPC: 1.27991 cumulative IPC: 1.28300 (Simulation time: 0 hr 4 min 1 sec) 
Heartbeat CPU  0 instructions:   98000001 cycles:   76383570 heartbeat IPC: 1.28318 cumulative IPC: 1.28300 (Simulation time: 0 hr 4 min 4 sec) 
Heartbeat CPU  0 instructions:   99000003 cycles:   77162639 heartbeat IPC: 1.28359 cumulative IPC: 1.28300 (Simulation time: 0 hr 4 min 6 sec) 
Heartbeat CPU  0 instructions:  100000000 cycles:   77941476 heartbeat IPC: 1.28396 cumulative IPC: 1.28301 (Simulation time: 0 hr 4 min 9 sec) 

Warmup complete CPU  0 instructions:  100000001 cycles:   77941477 (Simulation time: 0 hr 4 min 9 sec) 

Heartbeat CPU  0 instructions:  101000003 cycles:   79338142 heartbeat IPC: 0.71599 cumulative IPC: 0.71599 (Simulation time: 0 hr 4 min 12 sec) 
Heartbeat CPU  0 instructions:  102000000 cycles:   80725427 heartbeat IPC: 0.72083 cumulative IPC: 0.71840 (Simulation time: 0 hr 4 min 15 sec) 
Heartbeat CPU  0 instructions:  103000002 cycles:   82123951 heartbeat IPC: 0.71504 cumulative IPC: 0.71728 (Simulation time: 0 hr 4 min 18 sec) 
Heartbeat CPU  0 instructions:  104000000 cycles:   83488463 heartbeat IPC: 0.73286 cumulative IPC: 0.72111 (Simulation time: 0 hr 4 min 21 sec) 
Heartbeat CPU  0 instructions:  105000003 cycles:   84896480 heartbeat IPC: 0.71022 cumulative IPC: 0.71891 (Simulation time: 0 hr 4 min 24 sec) 
Heartbeat CPU  0 instructions:  106000002 cycles:   86252691 heartbeat IPC: 0.73735 cumulative IPC: 0.72192 (Simulation time: 0 hr 4 min 27 sec) 
Heartbeat CPU  0 instructions:  107000000 cycles:   87618589 heartbeat IPC: 0.73212 cumulative IPC: 0.72336 (Simulation time: 0 hr 4 min 30 sec) 
Heartbeat CPU  0 instructions:  108000000 cycles:   89005780 heartbeat IPC: 0.72088 cumulative IPC: 0.72305 (Simulation time: 0 hr 4 min 33 sec) 
Heartbeat CPU  0 instructions:  109000003 cycles:   90391819 heartbeat IPC: 0.72148 cumulative IPC: 0.72287 (Simulation time: 0 hr 4 min 36 sec) 
Heartbeat CPU  0 instructions:  110000001 cycles:   91768047 heartbeat IPC: 0.72662 cumulative IPC: 0.72325 (Simulation time: 0 hr 4 min 39 sec) 
Heartbeat CPU  0 instructions:  111000000 cycles:   93118522 heartbeat IPC: 0.74048 cumulative IPC: 0.72478 (Simulation time: 0 hr 4 min 42 sec) 
Heartbeat CPU  0 instructions:  112000000 cycles:   94476849 heartbeat IPC: 0.73620 cumulative IPC: 0.72572 (Simulation time: 0 hr 4 min 45 sec) 
Heartbeat CPU  0 instructions:  113000000 cycles:   95850738 heartbeat IPC: 0.72786 cumulative IPC: 0.72588 (Simulation time: 0 hr 4 min 48 sec) 
Heartbeat CPU  0 instructions:  114000002 cycles:   97202787 heartbeat IPC: 0.73962 cumulative IPC: 0.72685 (Simulation time: 0 hr 4 min 51 sec) 
Heartbeat CPU  0 instructions:  115000000 cycles:   98568244 heartbeat IPC: 0.73235 cumulative IPC: 0.72721 (Simulation time: 0 hr 4 min 54 sec) 
Heartbeat CPU  0 instructions:  116000000 cycles:   99938647 heartbeat IPC: 0.72971 cumulative IPC: 0.72737 (Simulation time: 0 hr 4 min 57 sec) 
Heartbeat CPU  0 instructions:  117000000 cycles:  101307983 heartbeat IPC: 0.73028 cumulative IPC: 0.72754 (Simulation time: 0 hr 5 min 0 sec) 
Heartbeat CPU  0 instructions:  118000003 cycles:  102661193 heartbeat IPC: 0.73899 cumulative IPC: 0.72816 (Simulation time: 0 hr 5 min 3 sec) 
Heartbeat CPU  0 instructions:  119000001 cycles:  104016524 heartbeat IPC: 0.73783 cumulative IPC: 0.72867 (Simulation time: 0 hr 5 min 6 sec) 
Heartbeat CPU  0 instructions:  120000000 cycles:  105390611 heartbeat IPC: 0.72776 cumulative IPC: 0.72862 (Simulation time: 0 hr 5 min 9 sec) 
Heartbeat CPU  0 instructions:  121000000 cycles:  106748497 heartbeat IPC: 0.73644 cumulative IPC: 0.72899 (Simulation time: 0 hr 5 min 12 sec) 
Heartbeat CPU  0 instructions:  122000002 cycles:  108123186 heartbeat IPC: 0.72744 cumulative IPC: 0.72892 (Simulation time: 0 hr 5 min 15 sec) 
Heartbeat CPU  0 instructions:  123000000 cycles:  109505596 heartbeat IPC: 0.72337 cumulative IPC: 0.72868 (Simulation time: 0 hr 5 min 18 sec) 
Heartbeat CPU  0 instructions:  124000000 cycles:  110880940 heartbeat IPC: 0.72709 cumulative IPC: 0.72861 (Simulation time: 0 hr 5 min 21 sec) 
Heartbeat CPU  0 instructions:  125000002 cycles:  112260084 heartbeat IPC: 0.72509 cumulative IPC: 0.72847 (Simulation time: 0 hr 5 min 24 sec) 
Heartbeat CPU  0 instructions:  126000000 cycles:  113626767 heartbeat IPC: 0.73170 cumulative IPC: 0.72859 (Simulation time: 0 hr 5 min 27 sec) 
Heartbeat CPU  0 instructions:  127000002 cycles:  115020835 heartbeat IPC: 0.71733 cumulative IPC: 0.72817 (Simulation time: 0 hr 5 min 30 sec) 
Heartbeat CPU  0 instructions:  128000000 cycles:  116393748 heartbeat IPC: 0.72838 cumulative IPC: 0.72818 (Simulation time: 0 hr 5 min 33 sec) 
Heartbeat CPU  0 instructions:  129000001 cycles:  117754565 heartbeat IPC: 0.73485 cumulative IPC: 0.72840 (Simulation time: 0 hr 5 min 36 sec) 
Heartbeat CPU  0 instructions:  130000003 cycles:  119151911 heartbeat IPC: 0.71564 cumulative IPC: 0.72797 (Simulation time: 0 hr 5 min 40 sec) 
Heartbeat CPU  0 instructions:  131000003 cycles:  120560309 heartbeat IPC: 0.71003 cumulative IPC: 0.72738 (Simulation time: 0 hr 5 min 43 sec) 
Heartbeat CPU  0 instructions:  132000000 cycles:  121934940 heartbeat IPC: 0.72747 cumulative IPC: 0.72738 (Simulation time: 0 hr 5 min 46 sec) 
Heartbeat CPU  0 instructions:  133000000 cycles:  123299163 heartbeat IPC: 0.73302 cumulative IPC: 0.72755 (Simulation time: 0 hr 5 min 49 sec) 
Heartbeat CPU  0 instructions:  134000002 cycles:  124419618 heartbeat IPC: 0.89250 cumulative IPC: 0.73153 (Simulation time: 0 hr 5 min 51 sec) 
Heartbeat CPU  0 instructions:  135000002 cycles:  125541668 heartbeat IPC: 0.89123 cumulative IPC: 0.73529 (Simulation time: 0 hr 5 min 54 sec) 
Heartbeat CPU  0 instructions:  136000000 cycles:  126663172 heartbeat IPC: 0.89166 cumulative IPC: 0.73889 (Simulation time: 0 hr 5 min 57 sec) 
Heartbeat CPU  0 instructions:  137000002 cycles:  127778368 heartbeat IPC: 0.89671 cumulative IPC: 0.74242 (Simulation time: 0 hr 5 min 59 sec) 
Heartbeat CPU  0 instructions:  138000003 cycles:  128889054 heartbeat IPC: 0.90035 cumulative IPC: 0.74586 (Simulation time: 0 hr 6 min 2 sec) 
Heartbeat CPU  0 instructions:  139000001 cycles:  130000450 heartbeat IPC: 0.89977 cumulative IPC: 0.74915 (Simulation time: 0 hr 6 min 5 sec) 
Heartbeat CPU  0 instructions:  140000000 cycles:  131072223 heartbeat IPC: 0.93303 cumulative IPC: 0.75286 (Simulation time: 0 hr 6 min 7 sec) 
Heartbeat CPU  0 instructions:  141000003 cycles:  132137349 heartbeat IPC: 0.93886 cumulative IPC: 0.75652 (Simulation time: 0 hr 6 min 10 sec) 
Heartbeat CPU  0 instructions:  142000003 cycles:  133204007 heartbeat IPC: 0.93751 cumulative IPC: 0.76001 (Simulation time: 0 hr 6 min 13 sec) 
Heartbeat CPU  0 instructions:  143000000 cycles:  134478297 heartbeat IPC: 0.78475 cumulative IPC: 0.76057 (Simulation time: 0 hr 6 min 16 sec) 
Heartbeat CPU  0 instructions:  144000000 cycles:  135858734 heartbeat IPC: 0.72441 cumulative IPC: 0.75970 (Simulation time: 0 hr 6 min 19 sec) 
Heartbeat CPU  0 instructions:  145000002 cycles:  137198170 heartbeat IPC: 0.74658 cumulative IPC: 0.75941 (Simulation time: 0 hr 6 min 22 sec) 
Heartbeat CPU  0 instructions:  146000000 cycles:  138541211 heartbeat IPC: 0.74458 cumulative IPC: 0.75908 (Simulation time: 0 hr 6 min 25 sec) 
Heartbeat CPU  0 instructions:  147000002 cycles:  139887037 heartbeat IPC: 0.74304 cumulative IPC: 0.75873 (Simulation time: 0 hr 6 min 28 sec) 
Heartbeat CPU  0 instructions:  148000000 cycles:  141229230 heartbeat IPC: 0.74505 cumulative IPC: 0.75844 (Simulation time: 0 hr 6 min 31 sec) 
Heartbeat CPU  0 instructions:  149000001 cycles:  142576938 heartbeat IPC: 0.74200 cumulative IPC: 0.75810 (Simulation time: 0 hr 6 min 34 sec) 
Heartbeat CPU  0 instructions:  150000003 cycles:  143941127 heartbeat IPC: 0.73304 cumulative IPC: 0.75758 (Simulation time: 0 hr 6 min 37 sec) 
Heartbeat CPU  0 instructions:  151000001 cycles:  145316943 heartbeat IPC: 0.72684 cumulative IPC: 0.75695 (Simulation time: 0 hr 6 min 40 sec) 
Heartbeat CPU  0 instructions:  152000000 cycles:  146688851 heartbeat IPC: 0.72891 cumulative IPC: 0.75639 (Simulation time: 0 hr 6 min 43 sec) 
Heartbeat CPU  0 instructions:  153000002 cycles:  148024215 heartbeat IPC: 0.74886 cumulative IPC: 0.75625 (Simulation time: 0 hr 6 min 46 sec) 
Heartbeat CPU  0 instructions:  154000000 cycles:  149378661 heartbeat IPC: 0.73831 cumulative IPC: 0.75591 (Simulation time: 0 hr 6 min 49 sec) 
Heartbeat CPU  0 instructions:  155000000 cycles:  150750583 heartbeat IPC: 0.72890 cumulative IPC: 0.75540 (Simulation time: 0 hr 6 min 52 sec) 
Heartbeat CPU  0 instructions:  156000000 cycles:  152115891 heartbeat IPC: 0.73244 cumulative IPC: 0.75498 (Simulation time: 0 hr 6 min 55 sec) 
Heartbeat CPU  0 instructions:  157000001 cycles:  153474151 heartbeat IPC: 0.73624 cumulative IPC: 0.75464 (Simulation time: 0 hr 6 min 58 sec) 
Heartbeat CPU  0 instructions:  158000003 cycles:  154839752 heartbeat IPC: 0.73228 cumulative IPC: 0.75424 (Simulation time: 0 hr 7 min 1 sec) 
Heartbeat CPU  0 instructions:  159000002 cycles:  156227574 heartbeat IPC: 0.72055 cumulative IPC: 0.75365 (Simulation time: 0 hr 7 min 4 sec) 
Heartbeat CPU  0 instructions:  160000000 cycles:  157584493 heartbeat IPC: 0.73696 cumulative IPC: 0.75336 (Simulation time: 0 hr 7 min 7 sec) 
Heartbeat CPU  0 instructions:  161000003 cycles:  158957392 heartbeat IPC: 0.72839 cumulative IPC: 0.75294 (Simulation time: 0 hr 7 min 10 sec) 
Heartbeat CPU  0 instructions:  162000003 cycles:  160320044 heartbeat IPC: 0.73386 cumulative IPC: 0.75262 (Simulation time: 0 hr 7 min 13 sec) 
Heartbeat CPU  0 instructions:  163000001 cycles:  161682135 heartbeat IPC: 0.73416 cumulative IPC: 0.75232 (Simulation time: 0 hr 7 min 16 sec) 
Heartbeat CPU  0 instructions:  164000000 cycles:  163054609 heartbeat IPC: 0.72861 cumulative IPC: 0.75194 (Simulation time: 0 hr 7 min 19 sec) 
Heartbeat CPU  0 instructions:  165000002 cycles:  164421900 heartbeat IPC: 0.73137 cumulative IPC: 0.75162 (Simulation time: 0 hr 7 min 22 sec) 
Heartbeat CPU  0 instructions:  166000000 cycles:  165804032 heartbeat IPC: 0.72352 cumulative IPC: 0.75117 (Simulation time: 0 hr 7 min 25 sec) 
Heartbeat CPU  0 instructions:  167000002 cycles:  167165756 heartbeat IPC: 0.73436 cumulative IPC: 0.75092 (Simulation time: 0 hr 7 min 28 sec) 
Heartbeat CPU  0 instructions:  168000000 cycles:  168518898 heartbeat IPC: 0.73902 cumulative IPC: 0.75074 (Simulation time: 0 hr 7 min 31 sec) 
Heartbeat CPU  0 instructions:  169000001 cycles:  169865193 heartbeat IPC: 0.74278 cumulative IPC: 0.75062 (Simulation time: 0 hr 7 min 34 sec) 
Heartbeat CPU  0 instructions:  170000003 cycles:  171259867 heartbeat IPC: 0.71701 cumulative IPC: 0.75012 (Simulation time: 0 hr 7 min 38 sec) 
Heartbeat CPU  0 instructions:  171000002 cycles:  172610339 heartbeat IPC: 0.74048 cumulative IPC: 0.74998 (Simulation time: 0 hr 7 min 41 sec) 
Heartbeat CPU  0 instructions:  172000000 cycles:  173979577 heartbeat IPC: 0.73033 cumulative IPC: 0.74970 (Simulation time: 0 hr 7 min 44 sec) 
Heartbeat CPU  0 instructions:  173000002 cycles:  175321311 heartbeat IPC: 0.74531 cumulative IPC: 0.74964 (Simulation time: 0 hr 7 min 47 sec) 
Heartbeat CPU  0 instructions:  174000000 cycles:  176659176 heartbeat IPC: 0.74746 cumulative IPC: 0.74961 (Simulation time: 0 hr 7 min 50 sec) 
Heartbeat CPU  0 instructions:  175000001 cycles:  177995077 heartbeat IPC: 0.74856 cumulative IPC: 0.74960 (Simulation time: 0 hr 7 min 53 sec) 
Heartbeat CPU  0 instructions:  176000000 cycles:  179334120 heartbeat IPC: 0.74680 cumulative IPC: 0.74956 (Simulation time: 0 hr 7 min 56 sec) 
Heartbeat CPU  0 instructions:  177000001 cycles:  180708003 heartbeat IPC: 0.72786 cumulative IPC: 0.74927 (Simulation time: 0 hr 7 min 59 sec) 
Heartbeat CPU  0 instructions:  178000000 cycles:  182061446 heartbeat IPC: 0.73886 cumulative IPC: 0.74914 (Simulation time: 0 hr 8 min 2 sec) 
Heartbeat CPU  0 instructions:  179000002 cycles:  183415630 heartbeat IPC: 0.73845 cumulative IPC: 0.74900 (Simulation time: 0 hr 8 min 5 sec) 
Heartbeat CPU  0 instructions:  180000000 cycles:  184756864 heartbeat IPC: 0.74558 cumulative IPC: 0.74896 (Simulation time: 0 hr 8 min 8 sec) 
Heartbeat CPU  0 instructions:  181000002 cycles:  186117972 heartbeat IPC: 0.73470 cumulative IPC: 0.74878 (Simulation time: 0 hr 8 min 11 sec) 
Heartbeat CPU  0 instructions:  182000003 cycles:  187467290 heartbeat IPC: 0.74112 cumulative IPC: 0.74868 (Simulation time: 0 hr 8 min 14 sec) 
Heartbeat CPU  0 instructions:  183000001 cycles:  188817966 heartbeat IPC: 0.74037 cumulative IPC: 0.74858 (Simulation time: 0 hr 8 min 17 sec) 
Heartbeat CPU  0 instructions:  184000000 cycles:  190193041 heartbeat IPC: 0.72723 cumulative IPC: 0.74832 (Simulation time: 0 hr 8 min 20 sec) 
Heartbeat CPU  0 instructions:  185000003 cycles:  191577272 heartbeat IPC: 0.72242 cumulative IPC: 0.74800 (Simulation time: 0 hr 8 min 23 sec) 
Heartbeat CPU  0 instructions:  186000000 cycles:  192920247 heartbeat IPC: 0.74461 cumulative IPC: 0.74796 (Simulation time: 0 hr 8 min 26 sec) 
Heartbeat CPU  0 instructions:  187000000 cycles:  194283508 heartbeat IPC: 0.73354 cumulative IPC: 0.74780 (Simulation time: 0 hr 8 min 29 sec) 
Heartbeat CPU  0 instructions:  188000000 cycles:  195660594 heartbeat IPC: 0.72617 cumulative IPC: 0.74754 (Simulation time: 0 hr 8 min 32 sec) 
Heartbeat CPU  0 instructions:  189000001 cycles:  197064081 heartbeat IPC: 0.71251 cumulative IPC: 0.74713 (Simulation time: 0 hr 8 min 35 sec) 
Heartbeat CPU  0 instructions:  190000003 cycles:  198404695 heartbeat IPC: 0.74593 cumulative IPC: 0.74712 (Simulation time: 0 hr 8 min 38 sec) 
Heartbeat CPU  0 instructions:  191000002 cycles:  199747170 heartbeat IPC: 0.74489 cumulative IPC: 0.74709 (Simulation time: 0 hr 8 min 41 sec) 
Heartbeat CPU  0 instructions:  192000000 cycles:  201143792 heartbeat IPC: 0.71601 cumulative IPC: 0.74674 (Simulation time: 0 hr 8 min 44 sec) 
Heartbeat CPU  0 instructions:  193000002 cycles:  202501269 heartbeat IPC: 0.73666 cumulative IPC: 0.74663 (Simulation time: 0 hr 8 min 47 sec) 
Heartbeat CPU  0 instructions:  194000003 cycles:  203884495 heartbeat IPC: 0.72295 cumulative IPC: 0.74637 (Simulation time: 0 hr 8 min 50 sec) 
Heartbeat CPU  0 instructions:  195000001 cycles:  205229927 heartbeat IPC: 0.74325 cumulative IPC: 0.74634 (Simulation time: 0 hr 8 min 53 sec) 
Heartbeat CPU  0 instructions:  196000000 cycles:  206585213 heartbeat IPC: 0.73785 cumulative IPC: 0.74625 (Simulation time: 0 hr 8 min 56 sec) 
Heartbeat CPU  0 instructions:  197000001 cycles:  207955702 heartbeat IPC: 0.72967 cumulative IPC: 0.74607 (Simulation time: 0 hr 8 min 59 sec) 
Heartbeat CPU  0 instructions:  198000000 cycles:  209318188 heartbeat IPC: 0.73395 cumulative IPC: 0.74595 (Simulation time: 0 hr 9 min 2 sec) 
Heartbeat CPU  0 instructions:  199000002 cycles:  210693076 heartbeat IPC: 0.72733 cumulative IPC: 0.74575 (Simulation time: 0 hr 9 min 5 sec) 
Heartbeat CPU  0 instructions:  200000000 cycles:  212051069 heartbeat IPC: 0.73638 cumulative IPC: 0.74566 (Simulation time: 0 hr 9 min 8 sec) 
Heartbeat CPU  0 instructions:  201000001 cycles:  213409033 heartbeat IPC: 0.73640 cumulative IPC: 0.74557 (Simulation time: 0 hr 9 min 11 sec) 
Heartbeat CPU  0 instructions:  202000003 cycles:  214752083 heartbeat IPC: 0.74458 cumulative IPC: 0.74556 (Simulation time: 0 hr 9 min 14 sec) 
Heartbeat CPU  0 instructions:  203000001 cycles:  216108185 heartbeat IPC: 0.73741 cumulative IPC: 0.74548 (Simulation time: 0 hr 9 min 17 sec) 
Heartbeat CPU  0 instructions:  204000000 cycles:  217453137 heartbeat IPC: 0.74352 cumulative IPC: 0.74546 (Simulation time: 0 hr 9 min 20 sec) 
Heartbeat CPU  0 instructions:  205000001 cycles:  218791312 heartbeat IPC: 0.74729 cumulative IPC: 0.74547 (Simulation time: 0 hr 9 min 23 sec) 
Heartbeat CPU  0 instructions:  206000000 cycles:  220143259 heartbeat IPC: 0.73967 cumulative IPC: 0.74542 (Simulation time: 0 hr 9 min 26 sec) 
Heartbeat CPU  0 instructions:  207000001 cycles:  221516312 heartbeat IPC: 0.72830 cumulative IPC: 0.74526 (Simulation time: 0 hr 9 min 29 sec) 
Heartbeat CPU  0 instructions:  208000000 cycles:  222861722 heartbeat IPC: 0.74327 cumulative IPC: 0.74524 (Simulation time: 0 hr 9 min 32 sec) 
Heartbeat CPU  0 instructions:  209000001 cycles:  224207001 heartbeat IPC: 0.74334 cumulative IPC: 0.74522 (Simulation time: 0 hr 9 min 35 sec) 
Heartbeat CPU  0 instructions:  210000000 cycles:  225571528 heartbeat IPC: 0.73285 cumulative IPC: 0.74511 (Simulation time: 0 hr 9 min 38 sec) 
Heartbeat CPU  0 instructions:  211000002 cycles:  226942520 heartbeat IPC: 0.72940 cumulative IPC: 0.74496 (Simulation time: 0 hr 9 min 42 sec) 
Heartbeat CPU  0 instructions:  212000000 cycles:  228290479 heartbeat IPC: 0.74186 cumulative IPC: 0.74493 (Simulation time: 0 hr 9 min 45 sec) 
Heartbeat CPU  0 instructions:  213000000 cycles:  229657451 heartbeat IPC: 0.73154 cumulative IPC: 0.74481 (Simulation time: 0 hr 9 min 48 sec) 
Heartbeat CPU  0 instructions:  214000003 cycles:  231038571 heartbeat IPC: 0.72405 cumulative IPC: 0.74463 (Simulation time: 0 hr 9 min 51 sec) 
Heartbeat CPU  0 instructions:  215000001 cycles:  232394215 heartbeat IPC: 0.73766 cumulative IPC: 0.74456 (Simulation time: 0 hr 9 min 54 sec) 
Heartbeat CPU  0 instructions:  216000000 cycles:  233757176 heartbeat IPC: 0.73370 cumulative IPC: 0.74447 (Simulation time: 0 hr 9 min 57 sec) 
Heartbeat CPU  0 instructions:  217000003 cycles:  235116104 heartbeat IPC: 0.73588 cumulative IPC: 0.74439 (Simulation time: 0 hr 10 min 0 sec) 
Heartbeat CPU  0 instructions:  218000000 cycles:  236513530 heartbeat IPC: 0.71560 cumulative IPC: 0.74414 (Simulation time: 0 hr 10 min 3 sec) 
Heartbeat CPU  0 instructions:  219000002 cycles:  237860334 heartbeat IPC: 0.74250 cumulative IPC: 0.74413 (Simulation time: 0 hr 10 min 6 sec) 
Heartbeat CPU  0 instructions:  220000000 cycles:  239219960 heartbeat IPC: 0.73549 cumulative IPC: 0.74405 (Simulation time: 0 hr 10 min 9 sec) 
Heartbeat CPU  0 instructions:  221000001 cycles:  240591237 heartbeat IPC: 0.72925 cumulative IPC: 0.74393 (Simulation time: 0 hr 10 min 12 sec) 
Heartbeat CPU  0 instructions:  222000003 cycles:  241962671 heartbeat IPC: 0.72917 cumulative IPC: 0.74381 (Simulation time: 0 hr 10 min 15 sec) 
Heartbeat CPU  0 instructions:  223000001 cycles:  243321177 heartbeat IPC: 0.73610 cumulative IPC: 0.74374 (Simulation time: 0 hr 10 min 18 sec) 
Heartbeat CPU  0 instructions:  224000000 cycles:  244672245 heartbeat IPC: 0.74015 cumulative IPC: 0.74371 (Simulation time: 0 hr 10 min 21 sec) 
Heartbeat CPU  0 instructions:  225000002 cycles:  246040285 heartbeat IPC: 0.73097 cumulative IPC: 0.74361 (Simulation time: 0 hr 10 min 24 sec) 
Heartbeat CPU  0 instructions:  226000000 cycles:  247403971 heartbeat IPC: 0.73331 cumulative IPC: 0.74353 (Simulation time: 0 hr 10 min 27 sec) 
Heartbeat CPU  0 instructions:  227000001 cycles:  248781222 heartbeat IPC: 0.72608 cumulative IPC: 0.74339 (Simulation time: 0 hr 10 min 30 sec) 
Heartbeat CPU  0 instructions:  228000000 cycles:  250135461 heartbeat IPC: 0.73842 cumulative IPC: 0.74335 (Simulation time: 0 hr 10 min 33 sec) 
Heartbeat CPU  0 instructions:  229000001 cycles:  251535096 heartbeat IPC: 0.71447 cumulative IPC: 0.74311 (Simulation time: 0 hr 10 min 36 sec) 
Heartbeat CPU  0 instructions:  230000002 cycles:  252879089 heartbeat IPC: 0.74405 cumulative IPC: 0.74312 (Simulation time: 0 hr 10 min 39 sec) 
Heartbeat CPU  0 instructions:  231000003 cycles:  254222864 heartbeat IPC: 0.74417 cumulative IPC: 0.74313 (Simulation time: 0 hr 10 min 42 sec) 
Heartbeat CPU  0 instructions:  232000000 cycles:  255592510 heartbeat IPC: 0.73011 cumulative IPC: 0.74303 (Simulation time: 0 hr 10 min 45 sec) 
Heartbeat CPU  0 instructions:  233000001 cycles:  256961363 heartbeat IPC: 0.73054 cumulative IPC: 0.74293 (Simulation time: 0 hr 10 min 48 sec) 
Heartbeat CPU  0 instructions:  234000003 cycles:  258336276 heartbeat IPC: 0.72732 cumulative IPC: 0.74282 (Simulation time: 0 hr 10 min 51 sec) 
Heartbeat CPU  0 instructions:  235000001 cycles:  259677990 heartbeat IPC: 0.74531 cumulative IPC: 0.74283 (Simulation time: 0 hr 10 min 54 sec) 
Heartbeat CPU  0 instructions:  236000000 cycles:  261038459 heartbeat IPC: 0.73504 cumulative IPC: 0.74278 (Simulation time: 0 hr 10 min 57 sec) 
Heartbeat CPU  0 instructions:  237000001 cycles:  262393666 heartbeat IPC: 0.73790 cumulative IPC: 0.74274 (Simulation time: 0 hr 11 min 0 sec) 
Heartbeat CPU  0 instructions:  238000002 cycles:  263738558 heartbeat IPC: 0.74355 cumulative IPC: 0.74275 (Simulation time: 0 hr 11 min 3 sec) 
Heartbeat CPU  0 instructions:  239000002 cycles:  265091777 heartbeat IPC: 0.73898 cumulative IPC: 0.74272 (Simulation time: 0 hr 11 min 6 sec) 
Heartbeat CPU  0 instructions:  240000000 cycles:  266469086 heartbeat IPC: 0.72605 cumulative IPC: 0.74260 (Simulation time: 0 hr 11 min 9 sec) 
Heartbeat CPU  0 instructions:  241000001 cycles:  267833631 heartbeat IPC: 0.73285 cumulative IPC: 0.74253 (Simulation time: 0 hr 11 min 12 sec) 
Heartbeat CPU  0 instructions:  242000000 cycles:  269184790 heartbeat IPC: 0.74010 cumulative IPC: 0.74251 (Simulation time: 0 hr 11 min 15 sec) 
Heartbeat CPU  0 instructions:  243000002 cycles:  270526114 heartbeat IPC: 0.74553 cumulative IPC: 0.74253 (Simulation time: 0 hr 11 min 18 sec) 
Heartbeat CPU  0 instructions:  244000000 cycles:  271913787 heartbeat IPC: 0.72063 cumulative IPC: 0.74237 (Simulation time: 0 hr 11 min 22 sec) 
Heartbeat CPU  0 instructions:  245000000 cycles:  273266246 heartbeat IPC: 0.73939 cumulative IPC: 0.74235 (Simulation time: 0 hr 11 min 25 sec) 
Heartbeat CPU  0 instructions:  246000003 cycles:  274645103 heartbeat IPC: 0.72524 cumulative IPC: 0.74223 (Simulation time: 0 hr 11 min 28 sec) 
Heartbeat CPU  0 instructions:  247000001 cycles:  275991656 heartbeat IPC: 0.74264 cumulative IPC: 0.74224 (Simulation time: 0 hr 11 min 31 sec) 
Heartbeat CPU  0 instructions:  248000000 cycles:  277336856 heartbeat IPC: 0.74338 cumulative IPC: 0.74224 (Simulation time: 0 hr 11 min 34 sec) 
Heartbeat CPU  0 instructions:  249000001 cycles:  278719501 heartbeat IPC: 0.72325 cumulative IPC: 0.74211 (Simulation time: 0 hr 11 min 37 sec) 
Heartbeat CPU  0 instructions:  250000001 cycles:  280081727 heartbeat IPC: 0.73409 cumulative IPC: 0.74206 (Simulation time: 0 hr 11 min 40 sec) 
Heartbeat CPU  0 instructions:  251000001 cycles:  281241327 heartbeat IPC: 0.86237 cumulative IPC: 0.74275 (Simulation time: 0 hr 11 min 42 sec) 
Heartbeat CPU  0 instructions:  252000000 cycles:  282958332 heartbeat IPC: 0.58241 cumulative IPC: 0.74140 (Simulation time: 0 hr 11 min 45 sec) 
Heartbeat CPU  0 instructions:  253000000 cycles:  284513327 heartbeat IPC: 0.64309 cumulative IPC: 0.74066 (Simulation time: 0 hr 11 min 47 sec) 
Heartbeat CPU  0 instructions:  254000003 cycles:  285964793 heartbeat IPC: 0.68896 cumulative IPC: 0.74030 (Simulation time: 0 hr 11 min 50 sec) 
Heartbeat CPU  0 instructions:  255000002 cycles:  287416236 heartbeat IPC: 0.68897 cumulative IPC: 0.73995 (Simulation time: 0 hr 11 min 52 sec) 
Heartbeat CPU  0 instructions:  256000000 cycles:  290935328 heartbeat IPC: 0.28416 cumulative IPC: 0.73242 (Simulation time: 0 hr 11 min 55 sec) 
Heartbeat CPU  0 instructions:  257000000 cycles:  292648060 heartbeat IPC: 0.58386 cumulative IPC: 0.73123 (Simulation time: 0 hr 11 min 58 sec) 
Heartbeat CPU  0 instructions:  258000001 cycles:  294194138 heartbeat IPC: 0.64680 cumulative IPC: 0.73063 (Simulation time: 0 hr 12 min 0 sec) 
Heartbeat CPU  0 instructions:  259000002 cycles:  295647223 heartbeat IPC: 0.68819 cumulative IPC: 0.73034 (Simulation time: 0 hr 12 min 2 sec) 
Heartbeat CPU  0 instructions:  260000000 cycles:  297100305 heartbeat IPC: 0.68819 cumulative IPC: 0.73006 (Simulation time: 0 hr 12 min 5 sec) 
Heartbeat CPU  0 instructions:  261000000 cycles:  300486982 heartbeat IPC: 0.29527 cumulative IPC: 0.72345 (Simulation time: 0 hr 12 min 8 sec) 
Heartbeat CPU  0 instructions:  262000003 cycles:  302201975 heartbeat IPC: 0.58309 cumulative IPC: 0.72237 (Simulation time: 0 hr 12 min 10 sec) 
Heartbeat CPU  0 instructions:  263000001 cycles:  303760682 heartbeat IPC: 0.64156 cumulative IPC: 0.72182 (Simulation time: 0 hr 12 min 13 sec) 
Heartbeat CPU  0 instructions:  264000000 cycles:  305214217 heartbeat IPC: 0.68798 cumulative IPC: 0.72160 (Simulation time: 0 hr 12 min 15 sec) 
Heartbeat CPU  0 instructions:  265000001 cycles:  306667875 heartbeat IPC: 0.68792 cumulative IPC: 0.72139 (Simulation time: 0 hr 12 min 18 sec) 
Heartbeat CPU  0 instructions:  266000001 cycles:  310107957 heartbeat IPC: 0.29069 cumulative IPC: 0.71500 (Simulation time: 0 hr 12 min 20 sec) 
Heartbeat CPU  0 instructions:  267000003 cycles:  311794203 heartbeat IPC: 0.59303 cumulative IPC: 0.71412 (Simulation time: 0 hr 12 min 23 sec) 
Heartbeat CPU  0 instructions:  268000000 cycles:  313355172 heartbeat IPC: 0.64063 cumulative IPC: 0.71364 (Simulation time: 0 hr 12 min 25 sec) 
Heartbeat CPU  0 instructions:  269000002 cycles:  314806110 heartbeat IPC: 0.68921 cumulative IPC: 0.71349 (Simulation time: 0 hr 12 min 28 sec) 
Heartbeat CPU  0 instructions:  270000003 cycles:  316257144 heartbeat IPC: 0.68916 cumulative IPC: 0.71334 (Simulation time: 0 hr 12 min 30 sec) 
Heartbeat CPU  0 instructions:  271000000 cycles:  319908453 heartbeat IPC: 0.27387 cumulative IPC: 0.70671 (Simulation time: 0 hr 12 min 33 sec) 
Heartbeat CPU  0 instructions:  272000000 cycles:  321599810 heartbeat IPC: 0.59124 cumulative IPC: 0.70591 (Simulation time: 0 hr 12 min 36 sec) 
Heartbeat CPU  0 instructions:  273000000 cycles:  323164345 heartbeat IPC: 0.63917 cumulative IPC: 0.70548 (Simulation time: 0 hr 12 min 38 sec) 
Heartbeat CPU  0 instructions:  274000001 cycles:  324615825 heartbeat IPC: 0.68895 cumulative IPC: 0.70538 (Simulation time: 0 hr 12 min 41 sec) 
Heartbeat CPU  0 instructions:  275000000 cycles:  326067486 heartbeat IPC: 0.68887 cumulative IPC: 0.70529 (Simulation time: 0 hr 12 min 43 sec) 
Heartbeat CPU  0 instructions:  276000000 cycles:  326976258 heartbeat IPC: 1.10039 cumulative IPC: 0.70673 (Simulation time: 0 hr 12 min 45 sec) 
Heartbeat CPU  0 instructions:  277000000 cycles:  328633949 heartbeat IPC: 0.60325 cumulative IPC: 0.70604 (Simulation time: 0 hr 12 min 47 sec) 
Heartbeat CPU  0 instructions:  278000000 cycles:  330200061 heartbeat IPC: 0.63852 cumulative IPC: 0.70563 (Simulation time: 0 hr 12 min 50 sec) 
Heartbeat CPU  0 instructions:  279000000 cycles:  331651620 heartbeat IPC: 0.68891 cumulative IPC: 0.70553 (Simulation time: 0 hr 12 min 52 sec) 
Heartbeat CPU  0 instructions:  280000000 cycles:  333102981 heartbeat IPC: 0.68901 cumulative IPC: 0.70544 (Simulation time: 0 hr 12 min 55 sec) 
Heartbeat CPU  0 instructions:  281000000 cycles:  334029159 heartbeat IPC: 1.07971 cumulative IPC: 0.70679 (Simulation time: 0 hr 12 min 57 sec) 
Heartbeat CPU  0 instructions:  282000000 cycles:  335692737 heartbeat IPC: 0.60111 cumulative IPC: 0.70611 (Simulation time: 0 hr 12 min 59 sec) 
Heartbeat CPU  0 instructions:  283000001 cycles:  337263313 heartbeat IPC: 0.63671 cumulative IPC: 0.70569 (Simulation time: 0 hr 13 min 2 sec) 
Heartbeat CPU  0 instructions:  284000000 cycles:  338715498 heartbeat IPC: 0.68862 cumulative IPC: 0.70559 (Simulation time: 0 hr 13 min 4 sec) 
Heartbeat CPU  0 instructions:  285000000 cycles:  340167482 heartbeat IPC: 0.68871 cumulative IPC: 0.70550 (Simulation time: 0 hr 13 min 6 sec) 
Heartbeat CPU  0 instructions:  286000002 cycles:  341021025 heartbeat IPC: 1.17159 cumulative IPC: 0.70701 (Simulation time: 0 hr 13 min 8 sec) 
Heartbeat CPU  0 instructions:  287000000 cycles:  342692392 heartbeat IPC: 0.59831 cumulative IPC: 0.70632 (Simulation time: 0 hr 13 min 11 sec) 
Heartbeat CPU  0 instructions:  288000000 cycles:  344254950 heartbeat IPC: 0.63998 cumulative IPC: 0.70594 (Simulation time: 0 hr 13 min 13 sec) 
Heartbeat CPU  0 instructions:  289000001 cycles:  345708682 heartbeat IPC: 0.68789 cumulative IPC: 0.70584 (Simulation time: 0 hr 13 min 16 sec) 
Heartbeat CPU  0 instructions:  290000001 cycles:  347162015 heartbeat IPC: 0.68807 cumulative IPC: 0.70574 (Simulation time: 0 hr 13 min 18 sec) 
Heartbeat CPU  0 instructions:  291000001 cycles:  347963315 heartbeat IPC: 1.24797 cumulative IPC: 0.70735 (Simulation time: 0 hr 13 min 20 sec) 
Heartbeat CPU  0 instructions:  292000000 cycles:  349596644 heartbeat IPC: 0.61225 cumulative IPC: 0.70678 (Simulation time: 0 hr 13 min 22 sec) 
Heartbeat CPU  0 instructions:  293000001 cycles:  351311210 heartbeat IPC: 0.58324 cumulative IPC: 0.70600 (Simulation time: 0 hr 13 min 25 sec) 
Heartbeat CPU  0 instructions:  294000003 cycles:  353025323 heartbeat IPC: 0.58339 cumulative IPC: 0.70524 (Simulation time: 0 hr 13 min 28 sec) 
Heartbeat CPU  0 instructions:  295000003 cycles:  354176741 heartbeat IPC: 0.86849 cumulative IPC: 0.70592 (Simulation time: 0 hr 13 min 30 sec) 
Heartbeat CPU  0 instructions:  296000000 cycles:  355501211 heartbeat IPC: 0.75502 cumulative IPC: 0.70615 (Simulation time: 0 hr 13 min 32 sec) 
Heartbeat CPU  0 instructions:  297000001 cycles:  357219153 heartbeat IPC: 0.58209 cumulative IPC: 0.70539 (Simulation time: 0 hr 13 min 35 sec) 
Heartbeat CPU  0 instructions:  298000002 cycles:  358935911 heartbeat IPC: 0.58249 cumulative IPC: 0.70464 (Simulation time: 0 hr 13 min 37 sec) 
Heartbeat CPU  0 instructions:  299000002 cycles:  360327880 heartbeat IPC: 0.71841 cumulative IPC: 0.70471 (Simulation time: 0 hr 13 min 40 sec) 
Heartbeat CPU  0 instructions:  300000000 cycles:  361221516 heartbeat IPC: 1.11902 cumulative IPC: 0.70602 (Simulation time: 0 hr 13 min 42 sec) 
Heartbeat CPU  0 instructions:  301000000 cycles:  362675116 heartbeat IPC: 0.68795 cumulative IPC: 0.70592 (Simulation time: 0 hr 13 min 44 sec) 
Heartbeat CPU  0 instructions:  302000001 cycles:  364128571 heartbeat IPC: 0.68802 cumulative IPC: 0.70583 (Simulation time: 0 hr 13 min 46 sec) 
Heartbeat CPU  0 instructions:  303000000 cycles:  365580687 heartbeat IPC: 0.68865 cumulative IPC: 0.70575 (Simulation time: 0 hr 13 min 49 sec) 
Heartbeat CPU  0 instructions:  304000000 cycles:  367032042 heartbeat IPC: 0.68901 cumulative IPC: 0.70566 (Simulation time: 0 hr 13 min 51 sec) 
Heartbeat CPU  0 instructions:  305000003 cycles:  367787200 heartbeat IPC: 1.32423 cumulative IPC: 0.70727 (Simulation time: 0 hr 13 min 53 sec) 
Heartbeat CPU  0 instructions:  306000001 cycles:  369136088 heartbeat IPC: 0.74135 cumulative IPC: 0.70743 (Simulation time: 0 hr 13 min 55 sec) 
Heartbeat CPU  0 instructions:  307000001 cycles:  370591498 heartbeat IPC: 0.68709 cumulative IPC: 0.70733 (Simulation time: 0 hr 13 min 58 sec) 
Heartbeat CPU  0 instructions:  308000000 cycles:  372045079 heartbeat IPC: 0.68796 cumulative IPC: 0.70723 (Simulation time: 0 hr 14 min 0 sec) 
Heartbeat CPU  0 instructions:  309000003 cycles:  373498626 heartbeat IPC: 0.68797 cumulative IPC: 0.70714 (Simulation time: 0 hr 14 min 2 sec) 
Heartbeat CPU  0 instructions:  310000002 cycles:  374708396 heartbeat IPC: 0.82660 cumulative IPC: 0.70763 (Simulation time: 0 hr 14 min 5 sec) 
Heartbeat CPU  0 instructions:  311000000 cycles:  377212830 heartbeat IPC: 0.39929 cumulative IPC: 0.70505 (Simulation time: 0 hr 14 min 8 sec) 
Heartbeat CPU  0 instructions:  312000000 cycles:  379796945 heartbeat IPC: 0.38698 cumulative IPC: 0.70232 (Simulation time: 0 hr 14 min 11 sec) 
Heartbeat CPU  0 instructions:  313000002 cycles:  382341732 heartbeat IPC: 0.39296 cumulative IPC: 0.69974 (Simulation time: 0 hr 14 min 14 sec) 
Heartbeat CPU  0 instructions:  314000002 cycles:  384912705 heartbeat IPC: 0.38896 cumulative IPC: 0.69713 (Simulation time: 0 hr 14 min 18 sec) 
Heartbeat CPU  0 instructions:  315000001 cycles:  387480428 heartbeat IPC: 0.38945 cumulative IPC: 0.69458 (Simulation time: 0 hr 14 min 21 sec) 
Heartbeat CPU  0 instructions:  316000000 cycles:  390060678 heartbeat IPC: 0.38756 cumulative IPC: 0.69204 (Simulation time: 0 hr 14 min 24 sec) 
Heartbeat CPU  0 instructions:  317000002 cycles:  392635282 heartbeat IPC: 0.38841 cumulative IPC: 0.68956 (Simulation time: 0 hr 14 min 28 sec) 
Heartbeat CPU  0 instructions:  318000000 cycles:  395126164 heartbeat IPC: 0.40146 cumulative IPC: 0.68730 (Simulation time: 0 hr 14 min 31 sec) 
Heartbeat CPU  0 instructions:  319000002 cycles:  397669250 heartbeat IPC: 0.39322 cumulative IPC: 0.68496 (Simulation time: 0 hr 14 min 34 sec) 
Heartbeat CPU  0 instructions:  320000000 cycles:  400160357 heartbeat IPC: 0.40143 cumulative IPC: 0.68277 (Simulation time: 0 hr 14 min 38 sec) 
Heartbeat CPU  0 instructions:  321000001 cycles:  402682851 heartbeat IPC: 0.39643 cumulative IPC: 0.68054 (Simulation time: 0 hr 14 min 41 sec) 
Heartbeat CPU  0 instructions:  322000000 cycles:  405195828 heartbeat IPC: 0.39793 cumulative IPC: 0.67837 (Simulation time: 0 hr 14 min 44 sec) 
Heartbeat CPU  0 instructions:  323000001 cycles:  407848663 heartbeat IPC: 0.37696 cumulative IPC: 0.67595 (Simulation time: 0 hr 14 min 47 sec) 
Heartbeat CPU  0 instructions:  324000000 cycles:  410248035 heartbeat IPC: 0.41678 cumulative IPC: 0.67408 (Simulation time: 0 hr 14 min 51 sec) 
Heartbeat CPU  0 instructions:  325000003 cycles:  412684315 heartbeat IPC: 0.41046 cumulative IPC: 0.67216 (Simulation time: 0 hr 14 min 54 sec) 
Heartbeat CPU  0 instructions:  326000000 cycles:  415124986 heartbeat IPC: 0.40972 cumulative IPC: 0.67026 (Simulation time: 0 hr 14 min 57 sec) 
Heartbeat CPU  0 instructions:  327000003 cycles:  417620325 heartbeat IPC: 0.40075 cumulative IPC: 0.66828 (Simulation time: 0 hr 15 min 0 sec) 
Heartbeat CPU  0 instructions:  328000000 cycles:  420129034 heartbeat IPC: 0.39861 cumulative IPC: 0.66630 (Simulation time: 0 hr 15 min 4 sec) 
Heartbeat CPU  0 instructions:  329000001 cycles:  422608882 heartbeat IPC: 0.40325 cumulative IPC: 0.66441 (Simulation time: 0 hr 15 min 7 sec) 
Heartbeat CPU  0 instructions:  330000000 cycles:  425072013 heartbeat IPC: 0.40599 cumulative IPC: 0.66257 (Simulation time: 0 hr 15 min 10 sec) 
Heartbeat CPU  0 instructions:  331000003 cycles:  427572513 heartbeat IPC: 0.39992 cumulative IPC: 0.66070 (Simulation time: 0 hr 15 min 13 sec) 
Heartbeat CPU  0 instructions:  332000000 cycles:  430063570 heartbeat IPC: 0.40143 cumulative IPC: 0.65886 (Simulation time: 0 hr 15 min 16 sec) 
Heartbeat CPU  0 instructions:  333000000 cycles:  432541345 heartbeat IPC: 0.40359 cumulative IPC: 0.65708 (Simulation time: 0 hr 15 min 20 sec) 
Heartbeat CPU  0 instructions:  334000001 cycles:  434984207 heartbeat IPC: 0.40936 cumulative IPC: 0.65538 (Simulation time: 0 hr 15 min 23 sec) 
Heartbeat CPU  0 instructions:  335000002 cycles:  437324009 heartbeat IPC: 0.42739 cumulative IPC: 0.65390 (Simulation time: 0 hr 15 min 26 sec) 
Heartbeat CPU  0 instructions:  336000000 cycles:  438785946 heartbeat IPC: 0.68402 cumulative IPC: 0.65402 (Simulation time: 0 hr 15 min 29 sec) 
Heartbeat CPU  0 instructions:  337000002 cycles:  440214478 heartbeat IPC: 0.70002 cumulative IPC: 0.65420 (Simulation time: 0 hr 15 min 32 sec) 
Heartbeat CPU  0 instructions:  338000000 cycles:  441673552 heartbeat IPC: 0.68536 cumulative IPC: 0.65433 (Simulation time: 0 hr 15 min 35 sec) 
Heartbeat CPU  0 instructions:  339000000 cycles:  443141458 heartbeat IPC: 0.68124 cumulative IPC: 0.65444 (Simulation time: 0 hr 15 min 38 sec) 
Heartbeat CPU  0 instructions:  340000000 cycles:  444587506 heartbeat IPC: 0.69154 cumulative IPC: 0.65458 (Simulation time: 0 hr 15 min 41 sec) 
Heartbeat CPU  0 instructions:  341000002 cycles:  446017633 heartbeat IPC: 0.69924 cumulative IPC: 0.65476 (Simulation time: 0 hr 15 min 44 sec) 
Heartbeat CPU  0 instructions:  342000001 cycles:  447439376 heartbeat IPC: 0.70336 cumulative IPC: 0.65494 (Simulation time: 0 hr 15 min 46 sec) 
Heartbeat CPU  0 instructions:  343000003 cycles:  448900156 heartbeat IPC: 0.68457 cumulative IPC: 0.65506 (Simulation time: 0 hr 15 min 49 sec) 
Heartbeat CPU  0 instructions:  344000000 cycles:  450356275 heartbeat IPC: 0.68676 cumulative IPC: 0.65518 (Simulation time: 0 hr 15 min 52 sec) 
Heartbeat CPU  0 instructions:  345000001 cycles:  451809476 heartbeat IPC: 0.68814 cumulative IPC: 0.65531 (Simulation time: 0 hr 15 min 55 sec) 
Heartbeat CPU  0 instructions:  346000002 cycles:  453292779 heartbeat IPC: 0.67417 cumulative IPC: 0.65539 (Simulation time: 0 hr 15 min 58 sec) 
Heartbeat CPU  0 instructions:  347000000 cycles:  455067475 heartbeat IPC: 0.56348 cumulative IPC: 0.65495 (Simulation time: 0 hr 16 min 1 sec) 
Heartbeat CPU  0 instructions:  348000000 cycles:  456625755 heartbeat IPC: 0.64173 cumulative IPC: 0.65490 (Simulation time: 0 hr 16 min 4 sec) 
Heartbeat CPU  0 instructions:  349000001 cycles:  458051542 heartbeat IPC: 0.70137 cumulative IPC: 0.65507 (Simulation time: 0 hr 16 min 7 sec) 
Heartbeat CPU  0 instructions:  350000001 cycles:  459511973 heartbeat IPC: 0.68473 cumulative IPC: 0.65519 (Simulation time: 0 hr 16 min 10 sec) 
Heartbeat CPU  0 instructions:  351000002 cycles:  460985941 heartbeat IPC: 0.67844 cumulative IPC: 0.65528 (Simulation time: 0 hr 16 min 13 sec) 
Heartbeat CPU  0 instructions:  352000000 cycles:  462500150 heartbeat IPC: 0.66041 cumulative IPC: 0.65530 (Simulation time: 0 hr 16 min 15 sec) 
Heartbeat CPU  0 instructions:  353000001 cycles:  464003594 heartbeat IPC: 0.66514 cumulative IPC: 0.65533 (Simulation time: 0 hr 16 min 18 sec) 
Heartbeat CPU  0 instructions:  354000001 cycles:  465485566 heartbeat IPC: 0.67478 cumulative IPC: 0.65541 (Simulation time: 0 hr 16 min 21 sec) 
Heartbeat CPU  0 instructions:  355000002 cycles:  466957978 heartbeat IPC: 0.67916 cumulative IPC: 0.65550 (Simulation time: 0 hr 16 min 24 sec) 
Heartbeat CPU  0 instructions:  356000000 cycles:  468453241 heartbeat IPC: 0.66878 cumulative IPC: 0.65555 (Simulation time: 0 hr 16 min 27 sec) 
Heartbeat CPU  0 instructions:  357000001 cycles:  469945541 heartbeat IPC: 0.67011 cumulative IPC: 0.65561 (Simulation time: 0 hr 16 min 30 sec) 
Heartbeat CPU  0 instructions:  358000003 cycles:  471420170 heartbeat IPC: 0.67814 cumulative IPC: 0.65569 (Simulation time: 0 hr 16 min 33 sec) 
Heartbeat CPU  0 instructions:  359000000 cycles:  472934097 heartbeat IPC: 0.66053 cumulative IPC: 0.65571 (Simulation time: 0 hr 16 min 36 sec) 
Heartbeat CPU  0 instructions:  360000000 cycles:  474434398 heartbeat IPC: 0.66653 cumulative IPC: 0.65575 (Simulation time: 0 hr 16 min 39 sec) 
Heartbeat CPU  0 instructions:  361000000 cycles:  475661772 heartbeat IPC: 0.81475 cumulative IPC: 0.65624 (Simulation time: 0 hr 16 min 42 sec) 
Heartbeat CPU  0 instructions:  362000000 cycles:  476864225 heartbeat IPC: 0.83163 cumulative IPC: 0.65677 (Simulation time: 0 hr 16 min 44 sec) 
Heartbeat CPU  0 instructions:  363000002 cycles:  478065505 heartbeat IPC: 0.83245 cumulative IPC: 0.65730 (Simulation time: 0 hr 16 min 47 sec) 
Heartbeat CPU  0 instructions:  364000000 cycles:  479252582 heartbeat IPC: 0.84240 cumulative IPC: 0.65784 (Simulation time: 0 hr 16 min 50 sec) 
Heartbeat CPU  0 instructions:  365000002 cycles:  480466621 heartbeat IPC: 0.82370 cumulative IPC: 0.65834 (Simulation time: 0 hr 16 min 53 sec) 
Heartbeat CPU  0 instructions:  366000002 cycles:  481693106 heartbeat IPC: 0.81534 cumulative IPC: 0.65882 (Simulation time: 0 hr 16 min 56 sec) 
Heartbeat CPU  0 instructions:  367000001 cycles:  482895308 heartbeat IPC: 0.83181 cumulative IPC: 0.65933 (Simulation time: 0 hr 16 min 58 sec) 
Heartbeat CPU  0 instructions:  368000000 cycles:  484064531 heartbeat IPC: 0.85527 cumulative IPC: 0.65990 (Simulation time: 0 hr 17 min 1 sec) 
Heartbeat CPU  0 instructions:  369000000 cycles:  485258200 heartbeat IPC: 0.83775 cumulative IPC: 0.66042 (Simulation time: 0 hr 17 min 4 sec) 
Heartbeat CPU  0 instructions:  370000003 cycles:  486508640 heartbeat IPC: 0.79972 cumulative IPC: 0.66085 (Simulation time: 0 hr 17 min 7 sec) 
Heartbeat CPU  0 instructions:  371000001 cycles:  487741890 heartbeat IPC: 0.81086 cumulative IPC: 0.66130 (Simulation time: 0 hr 17 min 10 sec) 
Heartbeat CPU  0 instructions:  372000000 cycles:  488934976 heartbeat IPC: 0.83816 cumulative IPC: 0.66181 (Simulation time: 0 hr 17 min 12 sec) 
Heartbeat CPU  0 instructions:  373000000 cycles:  490111739 heartbeat IPC: 0.84979 cumulative IPC: 0.66235 (Simulation time: 0 hr 17 min 15 sec) 
Heartbeat CPU  0 instructions:  374000000 cycles:  491371780 heartbeat IPC: 0.79362 cumulative IPC: 0.66275 (Simulation time: 0 hr 17 min 18 sec) 
Heartbeat CPU  0 instructions:  375000001 cycles:  492790935 heartbeat IPC: 0.70465 cumulative IPC: 0.66289 (Simulation time: 0 hr 17 min 21 sec) 
Heartbeat CPU  0 instructions:  376000000 cycles:  493958832 heartbeat IPC: 0.85624 cumulative IPC: 0.66343 (Simulation time: 0 hr 17 min 23 sec) 
Heartbeat CPU  0 instructions:  377000001 cycles:  495128350 heartbeat IPC: 0.85505 cumulative IPC: 0.66397 (Simulation time: 0 hr 17 min 26 sec) 
Heartbeat CPU  0 instructions:  378000003 cycles:  496284922 heartbeat IPC: 0.86463 cumulative IPC: 0.66453 (Simulation time: 0 hr 17 min 29 sec) 
Heartbeat CPU  0 instructions:  379000000 cycles:  497461471 heartbeat IPC: 0.84994 cumulative IPC: 0.66505 (Simulation time: 0 hr 17 min 32 sec) 
Heartbeat CPU  0 instructions:  380000000 cycles:  498642749 heartbeat IPC: 0.84654 cumulative IPC: 0.66556 (Simulation time: 0 hr 17 min 35 sec) 
Heartbeat CPU  0 instructions:  381000003 cycles:  499802848 heartbeat IPC: 0.86200 cumulative IPC: 0.66610 (Simulation time: 0 hr 17 min 37 sec) 
Heartbeat CPU  0 instructions:  382000003 cycles:  500969044 heartbeat IPC: 0.85749 cumulative IPC: 0.66662 (Simulation time: 0 hr 17 min 40 sec) 
Heartbeat CPU  0 instructions:  383000003 cycles:  502175355 heartbeat IPC: 0.82897 cumulative IPC: 0.66708 (Simulation time: 0 hr 17 min 43 sec) 
Heartbeat CPU  0 instructions:  384000000 cycles:  503388407 heartbeat IPC: 0.82436 cumulative IPC: 0.66753 (Simulation time: 0 hr 17 min 46 sec) 
Heartbeat CPU  0 instructions:  385000003 cycles:  504623949 heartbeat IPC: 0.80936 cumulative IPC: 0.66794 (Simulation time: 0 hr 17 min 48 sec) 
Heartbeat CPU  0 instructions:  386000001 cycles:  505812399 heartbeat IPC: 0.84143 cumulative IPC: 0.66843 (Simulation time: 0 hr 17 min 51 sec) 
Heartbeat CPU  0 instructions:  387000003 cycles:  506977964 heartbeat IPC: 0.85795 cumulative IPC: 0.66894 (Simulation time: 0 hr 17 min 54 sec) 
Heartbeat CPU  0 instructions:  388000000 cycles:  508181643 heartbeat IPC: 0.83078 cumulative IPC: 0.66939 (Simulation time: 0 hr 17 min 57 sec) 
Heartbeat CPU  0 instructions:  389000003 cycles:  509366316 heartbeat IPC: 0.84412 cumulative IPC: 0.66987 (Simulation time: 0 hr 18 min 0 sec) 
Heartbeat CPU  0 instructions:  390000000 cycles:  511122460 heartbeat IPC: 0.56943 cumulative IPC: 0.66947 (Simulation time: 0 hr 18 min 3 sec) 
Heartbeat CPU  0 instructions:  391000003 cycles:  513501241 heartbeat IPC: 0.42038 cumulative IPC: 0.66811 (Simulation time: 0 hr 18 min 6 sec) 
Heartbeat CPU  0 instructions:  392000000 cycles:  515972275 heartbeat IPC: 0.40469 cumulative IPC: 0.66662 (Simulation time: 0 hr 18 min 9 sec) 
Heartbeat CPU  0 instructions:  393000003 cycles:  518507668 heartbeat IPC: 0.39442 cumulative IPC: 0.66505 (Simulation time: 0 hr 18 min 12 sec) 
Heartbeat CPU  0 instructions:  394000002 cycles:  521062270 heartbeat IPC: 0.39145 cumulative IPC: 0.66348 (Simulation time: 0 hr 18 min 16 sec) 
Heartbeat CPU  0 instructions:  395000000 cycles:  523603492 heartbeat IPC: 0.39351 cumulative IPC: 0.66194 (Simulation time: 0 hr 18 min 19 sec) 
Heartbeat CPU  0 instructions:  396000000 cycles:  526161777 heartbeat IPC: 0.39089 cumulative IPC: 0.66039 (Simulation time: 0 hr 18 min 22 sec) 
Heartbeat CPU  0 instructions:  397000002 cycles:  528692773 heartbeat IPC: 0.39510 cumulative IPC: 0.65890 (Simulation time: 0 hr 18 min 26 sec) 
Heartbeat CPU  0 instructions:  398000001 cycles:  531204074 heartbeat IPC: 0.39820 cumulative IPC: 0.65746 (Simulation time: 0 hr 18 min 29 sec) 
Heartbeat CPU  0 instructions:  399000002 cycles:  533702925 heartbeat IPC: 0.40018 cumulative IPC: 0.65604 (Simulation time: 0 hr 18 min 32 sec) 
Heartbeat CPU  0 instructions:  400000000 cycles:  536218360 heartbeat IPC: 0.39754 cumulative IPC: 0.65463 (Simulation time: 0 hr 18 min 36 sec) 
Heartbeat CPU  0 instructions:  401000001 cycles:  538735947 heartbeat IPC: 0.39721 cumulative IPC: 0.65322 (Simulation time: 0 hr 18 min 39 sec) 
Heartbeat CPU  0 instructions:  402000000 cycles:  541398786 heartbeat IPC: 0.37554 cumulative IPC: 0.65162 (Simulation time: 0 hr 18 min 42 sec) 
Heartbeat CPU  0 instructions:  403000000 cycles:  543796969 heartbeat IPC: 0.41698 cumulative IPC: 0.65042 (Simulation time: 0 hr 18 min 45 sec) 
Heartbeat CPU  0 instructions:  404000000 cycles:  546198265 heartbeat IPC: 0.41644 cumulative IPC: 0.64922 (Simulation time: 0 hr 18 min 49 sec) 
Heartbeat CPU  0 instructions:  405000000 cycles:  548610021 heartbeat IPC: 0.41464 cumulative IPC: 0.64801 (Simulation time: 0 hr 18 min 52 sec) 
Heartbeat CPU  0 instructions:  406000000 cycles:  551067154 heartbeat IPC: 0.40698 cumulative IPC: 0.64676 (Simulation time: 0 hr 18 min 55 sec) 
Heartbeat CPU  0 instructions:  407000001 cycles:  553549770 heartbeat IPC: 0.40280 cumulative IPC: 0.64549 (Simulation time: 0 hr 18 min 58 sec) 
Heartbeat CPU  0 instructions:  408000000 cycles:  556024234 heartbeat IPC: 0.40413 cumulative IPC: 0.64424 (Simulation time: 0 hr 19 min 2 sec) 
Heartbeat CPU  0 instructions:  409000002 cycles:  558457422 heartbeat IPC: 0.41098 cumulative IPC: 0.64306 (Simulation time: 0 hr 19 min 5 sec) 
Heartbeat CPU  0 instructions:  410000003 cycles:  560913074 heartbeat IPC: 0.40722 cumulative IPC: 0.64186 (Simulation time: 0 hr 19 min 8 sec) 
Heartbeat CPU  0 instructions:  411000000 cycles:  563375088 heartbeat IPC: 0.40617 cumulative IPC: 0.64066 (Simulation time: 0 hr 19 min 11 sec) 
Heartbeat CPU  0 instructions:  412000000 cycles:  565804930 heartbeat IPC: 0.41155 cumulative IPC: 0.63952 (Simulation time: 0 hr 19 min 14 sec) 
Heartbeat CPU  0 instructions:  413000002 cycles:  568243476 heartbeat IPC: 0.41008 cumulative IPC: 0.63838 (Simulation time: 0 hr 19 min 18 sec) 
Heartbeat CPU  0 instructions:  414000001 cycles:  570736432 heartbeat IPC: 0.40113 cumulative IPC: 0.63718 (Simulation time: 0 hr 19 min 21 sec) 
Heartbeat CPU  0 instructions:  415000000 cycles:  572135030 heartbeat IPC: 0.71500 cumulative IPC: 0.63740 (Simulation time: 0 hr 19 min 24 sec) 
Heartbeat CPU  0 instructions:  416000000 cycles:  573428011 heartbeat IPC: 0.77341 cumulative IPC: 0.63776 (Simulation time: 0 hr 19 min 27 sec) 
Heartbeat CPU  0 instructions:  417000003 cycles:  574716235 heartbeat IPC: 0.77626 cumulative IPC: 0.63812 (Simulation time: 0 hr 19 min 30 sec) 
Heartbeat CPU  0 instructions:  418000001 cycles:  576034452 heartbeat IPC: 0.75860 cumulative IPC: 0.63844 (Simulation time: 0 hr 19 min 32 sec) 
Heartbeat CPU  0 instructions:  419000002 cycles:  577351904 heartbeat IPC: 0.75904 cumulative IPC: 0.63875 (Simulation time: 0 hr 19 min 35 sec) 
Heartbeat CPU  0 instructions:  420000000 cycles:  578675340 heartbeat IPC: 0.75561 cumulative IPC: 0.63906 (Simulation time: 0 hr 19 min 38 sec) 
Heartbeat CPU  0 instructions:  421000000 cycles:  580087108 heartbeat IPC: 0.70833 cumulative IPC: 0.63926 (Simulation time: 0 hr 19 min 41 sec) 
Heartbeat CPU  0 instructions:  422000001 cycles:  581428974 heartbeat IPC: 0.74523 cumulative IPC: 0.63954 (Simulation time: 0 hr 19 min 44 sec) 
Heartbeat CPU  0 instructions:  423000003 cycles:  582755091 heartbeat IPC: 0.75408 cumulative IPC: 0.63984 (Simulation time: 0 hr 19 min 47 sec) 
Heartbeat CPU  0 instructions:  424000000 cycles:  584055975 heartbeat IPC: 0.76871 cumulative IPC: 0.64017 (Simulation time: 0 hr 19 min 49 sec) 
Heartbeat CPU  0 instructions:  425000003 cycles:  585376903 heartbeat IPC: 0.75705 cumulative IPC: 0.64048 (Simulation time: 0 hr 19 min 52 sec) 
Heartbeat CPU  0 instructions:  426000002 cycles:  586742324 heartbeat IPC: 0.73237 cumulative IPC: 0.64072 (Simulation time: 0 hr 19 min 55 sec) 
Heartbeat CPU  0 instructions:  427000003 cycles:  588464468 heartbeat IPC: 0.58067 cumulative IPC: 0.64052 (Simulation time: 0 hr 19 min 58 sec) 
Heartbeat CPU  0 instructions:  428000000 cycles:  589791202 heartbeat IPC: 0.75373 cumulative IPC: 0.64081 (Simulation time: 0 hr 20 min 1 sec) 
Heartbeat CPU  0 instructions:  429000001 cycles:  591124765 heartbeat IPC: 0.74987 cumulative IPC: 0.64110 (Simulation time: 0 hr 20 min 4 sec) 
Heartbeat CPU  0 instructions:  430000003 cycles:  592450179 heartbeat IPC: 0.75448 cumulative IPC: 0.64139 (Simulation time: 0 hr 20 min 7 sec) 
Heartbeat CPU  0 instructions:  431000001 cycles:  593786796 heartbeat IPC: 0.74816 cumulative IPC: 0.64167 (Simulation time: 0 hr 20 min 10 sec) 
Heartbeat CPU  0 instructions:  432000000 cycles:  595136201 heartbeat IPC: 0.74107 cumulative IPC: 0.64192 (Simulation time: 0 hr 20 min 13 sec) 
Heartbeat CPU  0 instructions:  433000002 cycles:  596462335 heartbeat IPC: 0.75407 cumulative IPC: 0.64221 (Simulation time: 0 hr 20 min 15 sec) 
Heartbeat CPU  0 instructions:  434000003 cycles:  597784585 heartbeat IPC: 0.75629 cumulative IPC: 0.64250 (Simulation time: 0 hr 20 min 18 sec) 
Heartbeat CPU  0 instructions:  435000000 cycles:  599233427 heartbeat IPC: 0.69020 cumulative IPC: 0.64263 (Simulation time: 0 hr 20 min 21 sec) 
Heartbeat CPU  0 instructions:  436000000 cycles:  600597936 heartbeat IPC: 0.73286 cumulative IPC: 0.64287 (Simulation time: 0 hr 20 min 24 sec) 
Heartbeat CPU  0 instructions:  437000000 cycles:  601919529 heartbeat IPC: 0.75666 cumulative IPC: 0.64316 (Simulation time: 0 hr 20 min 27 sec) 
Heartbeat CPU  0 instructions:  438000000 cycles:  603276723 heartbeat IPC: 0.73681 cumulative IPC: 0.64340 (Simulation time: 0 hr 20 min 30 sec) 
Heartbeat CPU  0 instructions:  439000000 cycles:  604845592 heartbeat IPC: 0.63740 cumulative IPC: 0.64338 (Simulation time: 0 hr 20 min 33 sec) 
Heartbeat CPU  0 instructions:  440000000 cycles:  606115171 heartbeat IPC: 0.78766 cumulative IPC: 0.64373 (Simulation time: 0 hr 20 min 36 sec) 
Heartbeat CPU  0 instructions:  441000001 cycles:  607333454 heartbeat IPC: 0.82083 cumulative IPC: 0.64414 (Simulation time: 0 hr 20 min 38 sec) 
Heartbeat CPU  0 instructions:  442000001 cycles:  608520753 heartbeat IPC: 0.84225 cumulative IPC: 0.64458 (Simulation time: 0 hr 20 min 41 sec) 
Heartbeat CPU  0 instructions:  443000000 cycles:  609721560 heartbeat IPC: 0.83277 cumulative IPC: 0.64500 (Simulation time: 0 hr 20 min 44 sec) 
Heartbeat CPU  0 instructions:  444000000 cycles:  610956091 heartbeat IPC: 0.81002 cumulative IPC: 0.64539 (Simulation time: 0 hr 20 min 47 sec) 
Heartbeat CPU  0 instructions:  445000000 cycles:  612221760 heartbeat IPC: 0.79010 cumulative IPC: 0.64573 (Simulation time: 0 hr 20 min 50 sec) 
Heartbeat CPU  0 instructions:  446000002 cycles:  613437090 heartbeat IPC: 0.82282 cumulative IPC: 0.64613 (Simulation time: 0 hr 20 min 52 sec) 
Heartbeat CPU  0 instructions:  447000000 cycles:  614616639 heartbeat IPC: 0.84778 cumulative IPC: 0.64657 (Simulation time: 0 hr 20 min 55 sec) 
Heartbeat CPU  0 instructions:  448000000 cycles:  615819802 heartbeat IPC: 0.83114 cumulative IPC: 0.64699 (Simulation time: 0 hr 20 min 58 sec) 
Heartbeat CPU  0 instructions:  449000003 cycles:  617129293 heartbeat IPC: 0.76366 cumulative IPC: 0.64727 (Simulation time: 0 hr 21 min 1 sec) 
Heartbeat CPU  0 instructions:  450000000 cycles:  618391976 heartbeat IPC: 0.79196 cumulative IPC: 0.64761 (Simulation time: 0 hr 21 min 4 sec) 
Heartbeat CPU  0 instructions:  451000001 cycles:  619600088 heartbeat IPC: 0.82774 cumulative IPC: 0.64801 (Simulation time: 0 hr 21 min 6 sec) 
Heartbeat CPU  0 instructions:  452000000 cycles:  620776298 heartbeat IPC: 0.85019 cumulative IPC: 0.64845 (Simulation time: 0 hr 21 min 9 sec) 
Heartbeat CPU  0 instructions:  453000003 cycles:  621982888 heartbeat IPC: 0.82878 cumulative IPC: 0.64885 (Simulation time: 0 hr 21 min 12 sec) 
Heartbeat CPU  0 instructions:  454000001 cycles:  623550698 heartbeat IPC: 0.63783 cumulative IPC: 0.64882 (Simulation time: 0 hr 21 min 15 sec) 
Heartbeat CPU  0 instructions:  455000003 cycles:  624852046 heartbeat IPC: 0.76844 cumulative IPC: 0.64910 (Simulation time: 0 hr 21 min 18 sec) 
Heartbeat CPU  0 instructions:  456000000 cycles:  626064959 heartbeat IPC: 0.82446 cumulative IPC: 0.64949 (Simulation time: 0 hr 21 min 21 sec) 
Heartbeat CPU  0 instructions:  457000001 cycles:  627249836 heartbeat IPC: 0.84397 cumulative IPC: 0.64991 (Simulation time: 0 hr 21 min 23 sec) 
Heartbeat CPU  0 instructions:  458000003 cycles:  628415401 heartbeat IPC: 0.85795 cumulative IPC: 0.65035 (Simulation time: 0 hr 21 min 26 sec) 
Heartbeat CPU  0 instructions:  459000001 cycles:  629675524 heartbeat IPC: 0.79357 cumulative IPC: 0.65068 (Simulation time: 0 hr 21 min 29 sec) 
Heartbeat CPU  0 instructions:  460000000 cycles:  630850636 heartbeat IPC: 0.85098 cumulative IPC: 0.65110 (Simulation time: 0 hr 21 min 32 sec) 
Heartbeat CPU  0 instructions:  461000003 cycles:  632086198 heartbeat IPC: 0.80935 cumulative IPC: 0.65145 (Simulation time: 0 hr 21 min 35 sec) 
Heartbeat CPU  0 instructions:  462000001 cycles:  633288149 heartbeat IPC: 0.83198 cumulative IPC: 0.65185 (Simulation time: 0 hr 21 min 37 sec) 
Heartbeat CPU  0 instructions:  463000000 cycles:  634458449 heartbeat IPC: 0.85448 cumulative IPC: 0.65227 (Simulation time: 0 hr 21 min 40 sec) 
Heartbeat CPU  0 instructions:  464000000 cycles:  635751721 heartbeat IPC: 0.77323 cumulative IPC: 0.65255 (Simulation time: 0 hr 21 min 43 sec) 
Heartbeat CPU  0 instructions:  465000001 cycles:  636969320 heartbeat IPC: 0.82129 cumulative IPC: 0.65292 (Simulation time: 0 hr 21 min 46 sec) 
Heartbeat CPU  0 instructions:  466000003 cycles:  638182048 heartbeat IPC: 0.82459 cumulative IPC: 0.65329 (Simulation time: 0 hr 21 min 49 sec) 
Heartbeat CPU  0 instructions:  467000003 cycles:  639379151 heartbeat IPC: 0.83535 cumulative IPC: 0.65368 (Simulation time: 0 hr 21 min 52 sec) 
Heartbeat CPU  0 instructions:  468000000 cycles:  640621168 heartbeat IPC: 0.80514 cumulative IPC: 0.65401 (Simulation time: 0 hr 21 min 54 sec) 
Heartbeat CPU  0 instructions:  469000002 cycles:  642080199 heartbeat IPC: 0.68539 cumulative IPC: 0.65409 (Simulation time: 0 hr 21 min 57 sec) 
Heartbeat CPU  0 instructions:  470000000 cycles:  644512072 heartbeat IPC: 0.41120 cumulative IPC: 0.65305 (Simulation time: 0 hr 22 min 0 sec) 
Heartbeat CPU  0 instructions:  471000001 cycles:  646888421 heartbeat IPC: 0.42081 cumulative IPC: 0.65208 (Simulation time: 0 hr 22 min 4 sec) 
Heartbeat CPU  0 instructions:  472000000 cycles:  649383139 heartbeat IPC: 0.40085 cumulative IPC: 0.65099 (Simulation time: 0 hr 22 min 7 sec) 
Heartbeat CPU  0 instructions:  473000001 cycles:  651898955 heartbeat IPC: 0.39749 cumulative IPC: 0.64987 (Simulation time: 0 hr 22 min 10 sec) 
Heartbeat CPU  0 instructions:  474000003 cycles:  654437283 heartbeat IPC: 0.39396 cumulative IPC: 0.64875 (Simulation time: 0 hr 22 min 14 sec) 
Heartbeat CPU  0 instructions:  475000002 cycles:  656974400 heartbeat IPC: 0.39415 cumulative IPC: 0.64763 (Simulation time: 0 hr 22 min 17 sec) 
Heartbeat CPU  0 instructions:  476000000 cycles:  659480960 heartbeat IPC: 0.39895 cumulative IPC: 0.64656 (Simulation time: 0 hr 22 min 20 sec) 
Heartbeat CPU  0 instructions:  477000003 cycles:  661963724 heartbeat IPC: 0.40278 cumulative IPC: 0.64552 (Simulation time: 0 hr 22 min 24 sec) 
Heartbeat CPU  0 instructions:  478000000 cycles:  664457949 heartbeat IPC: 0.40092 cumulative IPC: 0.64448 (Simulation time: 0 hr 22 min 27 sec) 
Heartbeat CPU  0 instructions:  479000001 cycles:  666897318 heartbeat IPC: 0.40994 cumulative IPC: 0.64351 (Simulation time: 0 hr 22 min 30 sec) 
Heartbeat CPU  0 instructions:  480000000 cycles:  669362493 heartbeat IPC: 0.40565 cumulative IPC: 0.64252 (Simulation time: 0 hr 22 min 34 sec) 
Heartbeat CPU  0 instructions:  481000001 cycles:  671885868 heartbeat IPC: 0.39630 cumulative IPC: 0.64147 (Simulation time: 0 hr 22 min 37 sec) 
Heartbeat CPU  0 instructions:  482000000 cycles:  674348736 heartbeat IPC: 0.40603 cumulative IPC: 0.64050 (Simulation time: 0 hr 22 min 40 sec) 
Heartbeat CPU  0 instructions:  483000001 cycles:  676694965 heartbeat IPC: 0.42622 cumulative IPC: 0.63966 (Simulation time: 0 hr 22 min 43 sec) 
Heartbeat CPU  0 instructions:  484000000 cycles:  679056983 heartbeat IPC: 0.42337 cumulative IPC: 0.63881 (Simulation time: 0 hr 22 min 47 sec) 
Heartbeat CPU  0 instructions:  485000001 cycles:  681488673 heartbeat IPC: 0.41124 cumulative IPC: 0.63790 (Simulation time: 0 hr 22 min 50 sec) 
Heartbeat CPU  0 instructions:  486000002 cycles:  683921541 heartbeat IPC: 0.41104 cumulative IPC: 0.63698 (Simulation time: 0 hr 22 min 53 sec) 
Heartbeat CPU  0 instructions:  487000003 cycles:  686351097 heartbeat IPC: 0.41160 cumulative IPC: 0.63608 (Simulation time: 0 hr 22 min 56 sec) 
Heartbeat CPU  0 instructions:  488000000 cycles:  688773348 heartbeat IPC: 0.41284 cumulative IPC: 0.63520 (Simulation time: 0 hr 23 min 0 sec) 
Heartbeat CPU  0 instructions:  489000002 cycles:  691179929 heartbeat IPC: 0.41553 cumulative IPC: 0.63434 (Simulation time: 0 hr 23 min 3 sec) 
Heartbeat CPU  0 instructions:  490000003 cycles:  693607775 heartbeat IPC: 0.41189 cumulative IPC: 0.63346 (Simulation time: 0 hr 23 min 6 sec) 
Heartbeat CPU  0 instructions:  491000000 cycles:  696040712 heartbeat IPC: 0.41102 cumulative IPC: 0.63258 (Simulation time: 0 hr 23 min 9 sec) 
Heartbeat CPU  0 instructions:  492000000 cycles:  698424342 heartbeat IPC: 0.41953 cumulative IPC: 0.63177 (Simulation time: 0 hr 23 min 12 sec) 
Heartbeat CPU  0 instructions:  493000002 cycles:  700829560 heartbeat IPC: 0.41576 cumulative IPC: 0.63093 (Simulation time: 0 hr 23 min 16 sec) 
Heartbeat CPU  0 instructions:  494000002 cycles:  702585480 heartbeat IPC: 0.56950 cumulative IPC: 0.63076 (Simulation time: 0 hr 23 min 19 sec) 
Heartbeat CPU  0 instructions:  495000003 cycles:  703916286 heartbeat IPC: 0.75143 cumulative IPC: 0.63102 (Simulation time: 0 hr 23 min 22 sec) 
Heartbeat CPU  0 instructions:  496000000 cycles:  705237199 heartbeat IPC: 0.75705 cumulative IPC: 0.63128 (Simulation time: 0 hr 23 min 24 sec) 
Heartbeat CPU  0 instructions:  497000000 cycles:  706610981 heartbeat IPC: 0.72792 cumulative IPC: 0.63149 (Simulation time: 0 hr 23 min 27 sec) 
Heartbeat CPU  0 instructions:  498000002 cycles:  707940983 heartbeat IPC: 0.75188 cumulative IPC: 0.63175 (Simulation time: 0 hr 23 min 30 sec) 
Heartbeat CPU  0 instructions:  499000002 cycles:  709249362 heartbeat IPC: 0.76430 cumulative IPC: 0.63202 (Simulation time: 0 hr 23 min 33 sec) 
Heartbeat CPU  0 instructions:  500000000 cycles:  710543219 heartbeat IPC: 0.77288 cumulative IPC: 0.63231 (Simulation time: 0 hr 23 min 36 sec) 
Heartbeat CPU  0 instructions:  501000000 cycles:  711976530 heartbeat IPC: 0.69769 cumulative IPC: 0.63246 (Simulation time: 0 hr 23 min 39 sec) 
Heartbeat CPU  0 instructions:  502000000 cycles:  713302771 heartbeat IPC: 0.75401 cumulative IPC: 0.63271 (Simulation time: 0 hr 23 min 41 sec) 
Heartbeat CPU  0 instructions:  503000001 cycles:  714616739 heartbeat IPC: 0.76105 cumulative IPC: 0.63298 (Simulation time: 0 hr 23 min 44 sec) 
Heartbeat CPU  0 instructions:  504000000 cycles:  715941397 heartbeat IPC: 0.75491 cumulative IPC: 0.63323 (Simulation time: 0 hr 23 min 47 sec) 
Heartbeat CPU  0 instructions:  505000000 cycles:  717325230 heartbeat IPC: 0.72263 cumulative IPC: 0.63342 (Simulation time: 0 hr 23 min 50 sec) 
Heartbeat CPU  0 instructions:  506000001 cycles:  719001311 heartbeat IPC: 0.59663 cumulative IPC: 0.63333 (Simulation time: 0 hr 23 min 53 sec) 
Heartbeat CPU  0 instructions:  507000002 cycles:  720384694 heartbeat IPC: 0.72287 cumulative IPC: 0.63352 (Simulation time: 0 hr 23 min 56 sec) 
Heartbeat CPU  0 instructions:  508000000 cycles:  721723674 heartbeat IPC: 0.74684 cumulative IPC: 0.63375 (Simulation time: 0 hr 23 min 59 sec) 
Heartbeat CPU  0 instructions:  509000000 cycles:  723076709 heartbeat IPC: 0.73908 cumulative IPC: 0.63398 (Simulation time: 0 hr 24 min 2 sec) 
Heartbeat CPU  0 instructions:  510000001 cycles:  724460049 heartbeat IPC: 0.72289 cumulative IPC: 0.63417 (Simulation time: 0 hr 24 min 4 sec) 
Heartbeat CPU  0 instructions:  511000002 cycles:  725853263 heartbeat IPC: 0.71777 cumulative IPC: 0.63435 (Simulation time: 0 hr 24 min 7 sec) 
Heartbeat CPU  0 instructions:  512000000 cycles:  727227523 heartbeat IPC: 0.72766 cumulative IPC: 0.63454 (Simulation time: 0 hr 24 min 10 sec) 
Heartbeat CPU  0 instructions:  513000002 cycles:  728582743 heartbeat IPC: 0.73789 cumulative IPC: 0.63476 (Simulation time: 0 hr 24 min 13 sec) 
Heartbeat CPU  0 instructions:  514000001 cycles:  729934399 heartbeat IPC: 0.73983 cumulative IPC: 0.63498 (Simulation time: 0 hr 24 min 16 sec) 
Heartbeat CPU  0 instructions:  515000000 cycles:  731287772 heartbeat IPC: 0.73889 cumulative IPC: 0.63519 (Simulation time: 0 hr 24 min 19 sec) 
Heartbeat CPU  0 instructions:  516000000 cycles:  732724511 heartbeat IPC: 0.69602 cumulative IPC: 0.63532 (Simulation time: 0 hr 24 min 22 sec) 
Heartbeat CPU  0 instructions:  517000001 cycles:  734072919 heartbeat IPC: 0.74162 cumulative IPC: 0.63554 (Simulation time: 0 hr 24 min 25 sec) 
Heartbeat CPU  0 instructions:  518000001 cycles:  735603201 heartbeat IPC: 0.65347 cumulative IPC: 0.63559 (Simulation time: 0 hr 24 min 27 sec) 
Heartbeat CPU  0 instructions:  519000000 cycles:  736898974 heartbeat IPC: 0.77174 cumulative IPC: 0.63585 (Simulation time: 0 hr 24 min 30 sec) 
Heartbeat CPU  0 instructions:  520000000 cycles:  738093561 heartbeat IPC: 0.83711 cumulative IPC: 0.63622 (Simulation time: 0 hr 24 min 33 sec) 
Heartbeat CPU  0 instructions:  521000000 cycles:  739267676 heartbeat IPC: 0.85171 cumulative IPC: 0.63660 (Simulation time: 0 hr 24 min 36 sec) 
Heartbeat CPU  0 instructions:  522000002 cycles:  740439790 heartbeat IPC: 0.85316 cumulative IPC: 0.63698 (Simulation time: 0 hr 24 min 39 sec) 
Heartbeat CPU  0 instructions:  523000001 cycles:  741685281 heartbeat IPC: 0.80290 cumulative IPC: 0.63729 (Simulation time: 0 hr 24 min 41 sec) 
Heartbeat CPU  0 instructions:  524000000 cycles:  742898025 heartbeat IPC: 0.82458 cumulative IPC: 0.63764 (Simulation time: 0 hr 24 min 44 sec) 
Heartbeat CPU  0 instructions:  525000002 cycles:  744111143 heartbeat IPC: 0.82432 cumulative IPC: 0.63798 (Simulation time: 0 hr 24 min 47 sec) 
Heartbeat CPU  0 instructions:  526000000 cycles:  745294859 heartbeat IPC: 0.84480 cumulative IPC: 0.63834 (Simulation time: 0 hr 24 min 50 sec) 
Heartbeat CPU  0 instructions:  527000001 cycles:  746490367 heartbeat IPC: 0.83647 cumulative IPC: 0.63870 (Simulation time: 0 hr 24 min 53 sec) 
[...]
Heartbeat CPU  0 instructions:  565000001 cycles:  813809002 heartbeat IPC: 0.41109 cumulative IPC: 0.63191 (Simulation time: 0 hr 26 min 47 sec) 
Heartbeat CPU  0 instructions:  566000001 cycles:  816238932 heartbeat IPC: 0.41153 cumulative IPC: 0.63118 (Simulation time: 0 hr 26 min 50 sec) 
Heartbeat CPU  0 instructions:  567000001 cycles:  818679011 heartbeat IPC: 0.40982 cumulative IPC: 0.63045 (Simulation time: 0 hr 26 min 54 sec) 
Heartbeat CPU  0 instructions:  568000000 cycles:  821117212 heartbeat IPC: 0.41014 cumulative IPC: 0.62973 (Simulation time: 0 hr 26 min 57 sec) 
Heartbeat CPU  0 instructions:  569000001 cycles:  823548840 heartbeat IPC: 0.41125 cumulative IPC: 0.62902 (Simulation time: 0 hr 27 min 0 sec) 
Heartbeat CPU  0 instructions:  570000000 cycles:  825968532 heartbeat IPC: 0.41328 cumulative IPC: 0.62832 (Simulation time: 0 hr 27 min 3 sec) 
Heartbeat CPU  0 instructions:  571000002 cycles:  828401909 heartbeat IPC: 0.41095 cumulative IPC: 0.62761 (Simulation time: 0 hr 27 min 7 sec) 
Heartbeat CPU  0 instructions:  572000000 cycles:  830823419 heartbeat IPC: 0.41296 cumulative IPC: 0.62692 (Simulation time: 0 hr 27 min 10 sec) 
Heartbeat CPU  0 instructions:  573000000 cycles:  832783349 heartbeat IPC: 0.51022 cumulative IPC: 0.62662 (Simulation time: 0 hr 27 min 13 sec) 
Heartbeat CPU  0 instructions:  574000002 cycles:  834148843 heartbeat IPC: 0.73234 cumulative IPC: 0.62681 (Simulation time: 0 hr 27 min 16 sec) 
Heartbeat CPU  0 instructions:  575000000 cycles:  835477984 heartbeat IPC: 0.75236 cumulative IPC: 0.62703 (Simulation time: 0 hr 27 min 19 sec) 
Heartbeat CPU  0 instructions:  576000000 cycles:  836814778 heartbeat IPC: 0.74806 cumulative IPC: 0.62725 (Simulation time: 0 hr 27 min 21 sec) 
Heartbeat CPU  0 instructions:  577000001 cycles:  838164637 heartbeat IPC: 0.74082 cumulative IPC: 0.62745 (Simulation time: 0 hr 27 min 24 sec) 
Heartbeat CPU  0 instructions:  578000000 cycles:  839611882 heartbeat IPC: 0.69097 cumulative IPC: 0.62757 (Simulation time: 0 hr 27 min 27 sec) 
Heartbeat CPU  0 instructions:  579000000 cycles:  840979837 heartbeat IPC: 0.73102 cumulative IPC: 0.62775 (Simulation time: 0 hr 27 min 30 sec) 
Heartbeat CPU  0 instructions:  580000000 cycles:  842349159 heartbeat IPC: 0.73029 cumulative IPC: 0.62794 (Simulation time: 0 hr 27 min 33 sec) 
Heartbeat CPU  0 instructions:  581000001 cycles:  843733115 heartbeat IPC: 0.72257 cumulative IPC: 0.62811 (Simulation time: 0 hr 27 min 36 sec) 
Heartbeat CPU  0 instructions:  582000003 cycles:  845105834 heartbeat IPC: 0.72848 cumulative IPC: 0.62829 (Simulation time: 0 hr 27 min 39 sec) 
Heartbeat CPU  0 instructions:  583000000 cycles:  846492784 heartbeat IPC: 0.72100 cumulative IPC: 0.62846 (Simulation time: 0 hr 27 min 42 sec) 
Heartbeat CPU  0 instructions:  584000000 cycles:  847914924 heartbeat IPC: 0.70317 cumulative IPC: 0.62859 (Simulation time: 0 hr 27 min 44 sec) 
Heartbeat CPU  0 instructions:  585000002 cycles:  849695272 heartbeat IPC: 0.56169 cumulative IPC: 0.62844 (Simulation time: 0 hr 27 min 47 sec) 
Heartbeat CPU  0 instructions:  586000001 cycles:  851171729 heartbeat IPC: 0.67730 cumulative IPC: 0.62853 (Simulation time: 0 hr 27 min 50 sec) 
Heartbeat CPU  0 instructions:  587000000 cycles:  852599372 heartbeat IPC: 0.70045 cumulative IPC: 0.62866 (Simulation time: 0 hr 27 min 53 sec) 
Heartbeat CPU  0 instructions:  588000000 cycles:  854005997 heartbeat IPC: 0.71092 cumulative IPC: 0.62881 (Simulation time: 0 hr 27 min 56 sec) 
Heartbeat CPU  0 instructions:  589000001 cycles:  855411083 heartbeat IPC: 0.71170 cumulative IPC: 0.62896 (Simulation time: 0 hr 27 min 59 sec) 
Heartbeat CPU  0 instructions:  590000001 cycles:  856822272 heartbeat IPC: 0.70862 cumulative IPC: 0.62911 (Simulation time: 0 hr 28 min 2 sec) 
Heartbeat CPU  0 instructions:  591000000 cycles:  858261128 heartbeat IPC: 0.69500 cumulative IPC: 0.62923 (Simulation time: 0 hr 28 min 5 sec) 
Heartbeat CPU  0 instructions:  592000000 cycles:  859681190 heartbeat IPC: 0.70419 cumulative IPC: 0.62937 (Simulation time: 0 hr 28 min 8 sec) 
Heartbeat CPU  0 instructions:  593000002 cycles:  861101888 heartbeat IPC: 0.70388 cumulative IPC: 0.62950 (Simulation time: 0 hr 28 min 11 sec) 
Heartbeat CPU  0 instructions:  594000001 cycles:  862509154 heartbeat IPC: 0.71060 cumulative IPC: 0.62965 (Simulation time: 0 hr 28 min 14 sec) 
Heartbeat CPU  0 instructions:  595000002 cycles:  863922351 heartbeat IPC: 0.70762 cumulative IPC: 0.62979 (Simulation time: 0 hr 28 min 17 sec) 
Heartbeat CPU  0 instructions:  596000000 cycles:  865338665 heartbeat IPC: 0.70606 cumulative IPC: 0.62992 (Simulation time: 0 hr 28 min 19 sec) 
Heartbeat CPU  0 instructions:  597000003 cycles:  866946889 heartbeat IPC: 0.62181 cumulative IPC: 0.62991 (Simulation time: 0 hr 28 min 22 sec) 
Heartbeat CPU  0 instructions:  598000002 cycles:  868264121 heartbeat IPC: 0.75917 cumulative IPC: 0.63012 (Simulation time: 0 hr 28 min 25 sec) 
Heartbeat CPU  0 instructions:  599000002 cycles:  869457064 heartbeat IPC: 0.83826 cumulative IPC: 0.63044 (Simulation time: 0 hr 28 min 28 sec) 
Heartbeat CPU  0 instructions:  600000000 cycles:  870648905 heartbeat IPC: 0.83904 cumulative IPC: 0.63075 (Simulation time: 0 hr 28 min 31 sec) 
Finished CPU 0 instructions: 500000000 cycles: 792707436 cumulative IPC: 0.63075 (Simulation time: 0 hr 28 min 31 sec) 

ChampSim completed all CPUs

[ROI Statistics]
Core_0_instructions 500000000
Core_0_cycles 792707436
Core_0_IPC 0.63075

Core_0_branch_prediction_accuracy 99.79948
Core_0_branch_MPKI 0.03552
Core_0_average_ROB_occupancy_at_mispredict 248.19767

Core_0_L1D_total_access 242935939
Core_0_L1D_total_hit 230657562
Core_0_L1D_total_miss 12278377
Core_0_L1D_loads 218707377
Core_0_L1D_load_hit 206604508
Core_0_L1D_load_miss 12102869
Core_0_L1D_RFOs 24228562
Core_0_L1D_RFO_hit 24053054
Core_0_L1D_RFO_miss 175508
Core_0_L1D_prefetches 0
Core_0_L1D_prefetch_hit 0
Core_0_L1D_prefetch_miss 0
Core_0_L1D_writebacks 0
Core_0_L1D_writeback_hit 0
Core_0_L1D_writeback_miss 0
Core_0_L1D_prefetch_requested 0
Core_0_L1D_prefetch_dropped 0
Core_0_L1D_prefetch_issued 0
Core_0_L1D_prefetch_filled 0
Core_0_L1D_prefetch_useful 0
Core_0_L1D_prefetch_useless 0
Core_0_L1D_prefetch_late 0
Core_0_L1D_average_miss_latency 43.52413

Core_0_L1D_rq_access 258745340
Core_0_L1D_rq_forward 0
Core_0_L1D_rq_merged 39335068
Core_0_L1D_rq_to_cache 219410272
Core_0_L1D_rq_full 0

Core_0_L1D_wq_access 25182875
Core_0_L1D_wq_forward 0
Core_0_L1D_wq_merged 212770
Core_0_L1D_wq_to_cache 24970105
Core_0_L1D_wq_full 65642

Core_0_L1D_pq_access 0
Core_0_L1D_pq_forward 0
Core_0_L1D_pq_merged 0
Core_0_L1D_pq_to_cache 0
Core_0_L1D_pq_full 0

Core_0_L1D_acc_epochs 801491
Core_0_L1D_acc_level_0 801491
Core_0_L1D_acc_level_1 0
Core_0_L1D_acc_level_2 0
Core_0_L1D_acc_level_3 0
Core_0_L1D_acc_level_4 0
Core_0_L1D_acc_level_5 0
Core_0_L1D_acc_level_6 0
Core_0_L1D_acc_level_7 0
Core_0_L1D_acc_level_8 0
Core_0_L1D_acc_level_9 0

Core_0_L1I_total_access 131393004
Core_0_L1I_total_hit 131392355
Core_0_L1I_total_miss 649
Core_0_L1I_loads 131393004
Core_0_L1I_load_hit 131392355
Core_0_L1I_load_miss 649
Core_0_L1I_RFOs 0
Core_0_L1I_RFO_hit 0
Core_0_L1I_RFO_miss 0
Core_0_L1I_prefetches 0
Core_0_L1I_prefetch_hit 0
Core_0_L1I_prefetch_miss 0
Core_0_L1I_writebacks 0
Core_0_L1I_writeback_hit 0
Core_0_L1I_writeback_miss 0
Core_0_L1I_prefetch_requested 0
Core_0_L1I_prefetch_dropped 0
Core_0_L1I_prefetch_issued 0
Core_0_L1I_prefetch_filled 0
Core_0_L1I_prefetch_useful 0
Core_0_L1I_prefetch_useless 0
Core_0_L1I_prefetch_late 0
Core_0_L1I_average_miss_latency 194.35593

Core_0_L1I_rq_access 500000002
Core_0_L1I_rq_forward 0
Core_0_L1I_rq_merged 368606541
Core_0_L1I_rq_to_cache 131393461
Core_0_L1I_rq_full 0

Core_0_L1I_wq_access 0
Core_0_L1I_wq_forward 0
Core_0_L1I_wq_merged 0
Core_0_L1I_wq_to_cache 0
Core_0_L1I_wq_full 0

Core_0_L1I_pq_access 0
Core_0_L1I_pq_forward 0
Core_0_L1I_pq_merged 0
Core_0_L1I_pq_to_cache 0
Core_0_L1I_pq_full 0

Core_0_L1I_acc_epochs 801491
Core_0_L1I_acc_level_0 801491
Core_0_L1I_acc_level_1 0
Core_0_L1I_acc_level_2 0
Core_0_L1I_acc_level_3 0
Core_0_L1I_acc_level_4 0
Core_0_L1I_acc_level_5 0
Core_0_L1I_acc_level_6 0
Core_0_L1I_acc_level_7 0
Core_0_L1I_acc_level_8 0
Core_0_L1I_acc_level_9 0

Core_0_L2C_total_access 16833901
Core_0_L2C_total_hit 11723043
Core_0_L2C_total_miss 5110858
Core_0_L2C_loads 12103195
Core_0_L2C_load_hit 9098780
Core_0_L2C_load_miss 3004415
Core_0_L2C_RFOs 175468
Core_0_L2C_RFO_hit 3999
Core_0_L2C_RFO_miss 171469
Core_0_L2C_prefetches 1935028
Core_0_L2C_prefetch_hit 1138
Core_0_L2C_prefetch_miss 1933890
Core_0_L2C_writebacks 2620210
Core_0_L2C_writeback_hit 2619126
Core_0_L2C_writeback_miss 1084
Core_0_L2C_prefetch_requested 6021392
Core_0_L2C_prefetch_dropped 0
Core_0_L2C_prefetch_issued 6021392
Core_0_L2C_prefetch_filled 2665486
Core_0_L2C_prefetch_useful 2042143
Core_0_L2C_prefetch_useless 622174
Core_0_L2C_prefetch_late 4510
Core_0_L2C_average_miss_latency 107.70519

Core_0_L2C_rq_access 12279026
Core_0_L2C_rq_forward 0
Core_0_L2C_rq_merged 0
Core_0_L2C_rq_to_cache 12278663
Core_0_L2C_rq_full 0

Core_0_L2C_wq_access 2620210
Core_0_L2C_wq_forward 363
Core_0_L2C_wq_merged 0
Core_0_L2C_wq_to_cache 2620210
Core_0_L2C_wq_full 0

Core_0_L2C_pq_access 6021392
Core_0_L2C_pq_forward 0
Core_0_L2C_pq_merged 1383
Core_0_L2C_pq_to_cache 6020009
Core_0_L2C_pq_full 0

Core_0_L2C_acc_epochs 801491
Core_0_L2C_acc_level_0 457721
Core_0_L2C_acc_level_1 12868
Core_0_L2C_acc_level_2 10602
Core_0_L2C_acc_level_3 7850
Core_0_L2C_acc_level_4 17968
Core_0_L2C_acc_level_5 10506
Core_0_L2C_acc_level_6 14864
Core_0_L2C_acc_level_7 25621
Core_0_L2C_acc_level_8 33372
Core_0_L2C_acc_level_9 210119

Core_0_LLC_total_access 9062204
Core_0_LLC_total_hit 4496829
Core_0_LLC_total_miss 4565375
Core_0_LLC_loads 2999830
Core_0_LLC_load_hit 1858718
Core_0_LLC_load_miss 1141112
Core_0_LLC_RFOs 171467
Core_0_LLC_RFO_hit 149300
Core_0_LLC_RFO_miss 22167
Core_0_LLC_prefetches 4737683
Core_0_LLC_prefetch_hit 1486717
Core_0_LLC_prefetch_miss 3250966
Core_0_LLC_writebacks 1153224
Core_0_LLC_writeback_hit 1002094
Core_0_LLC_writeback_miss 151130
Core_0_LLC_prefetch_requested 0
Core_0_LLC_prefetch_dropped 0
Core_0_LLC_prefetch_issued 0
Core_0_LLC_prefetch_filled 3938390
Core_0_LLC_prefetch_useful 824476
Core_0_LLC_prefetch_useless 3102838
Core_0_LLC_prefetch_late 5134
Core_0_LLC_average_miss_latency 203.75168

Core_0_LLC_rq_access 3171374
Core_0_LLC_rq_forward 0
Core_0_LLC_rq_merged 0
Core_0_LLC_rq_to_cache 3171297
Core_0_LLC_rq_full 0

Core_0_LLC_wq_access 1153224
Core_0_LLC_wq_forward 90
Core_0_LLC_wq_merged 0
Core_0_LLC_wq_to_cache 1153224
Core_0_LLC_wq_full 0

Core_0_LLC_pq_access 5981546
Core_0_LLC_pq_forward 0
Core_0_LLC_pq_merged 594
Core_0_LLC_pq_to_cache 5980939
Core_0_LLC_pq_full 0

Core_0_LLC_acc_epochs 850244
Core_0_LLC_acc_level_0 493312
Core_0_LLC_acc_level_1 55646
Core_0_LLC_acc_level_2 44540
Core_0_LLC_acc_level_3 38463
Core_0_LLC_acc_level_4 32939
Core_0_LLC_acc_level_5 36053
Core_0_LLC_acc_level_6 28663
Core_0_LLC_acc_level_7 25099
Core_0_LLC_acc_level_8 20414
Core_0_LLC_acc_level_9 75115

Core_0_major_page_fault 0
Core_0_minor_page_fault 102074

[MLOP] History of tracked zone:
IIIIIIIIIIIIIIIIIIIIIIIIIIIIIIIIIIIIIIIIIIIIIIIIIIIIIIIIIIIIIIII
A222IIII222222224444IIIIIIIIIIIIIIIIIIIIIIIIIIIIIIIIIIIIIIIIIIII
AA222III2222222224444IIIIIIIIIIIIIIIIIIIIIIIIIIIIIIIIIIIIIIIIIII
AAA222II22222222224444IIIIIIIIIIIIIIIIIIIIIIIIIIIIIIIIIIIIIIIIII
AAAA222I222222222224444IIIIIIIIIIIIIIIIIIIIIIIIIIIIIIIIIIIIIIIII
AAAAA2222222222222224444IIIIIIIIIIIIIIIIIIIIIIIIIIIIIIIIIIIIIIII
AAAAAA2222222222222224444IIIIIIIIIIIIIIIIIIIIIIIIIIIIIIIIIIIIIII
AAAAAAA2222222222222224444IIIIIIIIIIIIIIIIIIIIIIIIIIIIIIIIIIIIII
AAAAAAAA2222222222222224444IIIIIIIIIIIIIIIIIIIIIIIIIIIIIIIIIIIII
AAAAAAAAA2222222222222224444IIIIIIIIIIIIIIIIIIIIIIIIIIIIIIIIIIII
AAAAAAAAAA2222222222222224444IIIIIIIIIIIIIIIIIIIIIIIIIIIIIIIIIII
AAAAAAAAAAA2222222222222224444IIIIIIIIIIIIIIIIIIIIIIIIIIIIIIIIII
AAAAAAAAAAAA2222222222222224444IIIIIIIIIIIIIIIIIIIIIIIIIIIIIIIII
AAAAAAAAAAAAA2222222222222224444IIIIIIIIIIIIIIIIIIIIIIIIIIIIIIII
AAAAAAAAAAAAAA2222222222222224444IIIIIIIIIIIIIIIIIIIIIIIIIIIIIII
AAAAAAAAAAAAAAA2222222222222224444IIIIIIIIIIIIIIIIIIIIIIIIIIIIII
AAAAAAAAAAAAAAAA2222222222222224444IIIIIIIIIIIIIIIIIIIIIIIIIIIII
AAAAAAAAAAAAAAAAA2222222222222224444IIIIIIIIIIIIIIIIIIIIIIIIIIII
AAAAAAAAAAAAAAAAAA2222222222222224444IIIIIIIIIIIIIIIIIIIIIIIIIII
AAAAAAAAAAAAAAAAAAA2222222222222224444IIIIIIIIIIIIIIIIIIIIIIIIII
AAAAAAAAAAAAAAAAAAAA2222222222222224444IIIIIIIIIIIIIIIIIIIIIIIII
AAAAAAAAAAAAAAAAAAAA222A2222222222222224444IIIIIIIIIIIIIIIIIIIII
AAAAAAAAAAAAAAAAAAAA22AA2222222222222224444IIIIIIIIIIIIIIIIIIIII
AAAAAAAAAAAAAAAAAAAA22AAA2222222222222224444IIIIIIIIIIIIIIIIIIII
AAAAAAAAAAAAAAAAAAAA22AAAA2222222222222224444IIIIIIIIIIIIIIIIIII
AAAAAAAAAAAAAAAAAAAA22AAAAA2222222222222224444IIIIIIIIIIIIIIIIII
AAAAAAAAAAAAAAAAAAAA22AAAAAA2222222222222224444IIIIIIIIIIIIIIIII
AAAAAAAAAAAAAAAAAAAA22AAAAAAA2222222222222224444IIIIIIIIIIIIIIII
AAAAAAAAAAAAAAAAAAAA22AAAAAAAA2222222222222224444IIIIIIIIIIIIIII
AAAAAAAAAAAAAAAAAAAA22AAAAAAAAA2222222222222224444IIIIIIIIIIIIII
AAAAAAAAAAAAAAAAAAAA22AAAAAAAAAA2222222222222224444IIIIIIIIIIIII
AAAAAAAAAAAAAAAAAAAA22AAAAAAAAAAA2222222222222224444IIIIIIIIIIII
AAAAAAAAAAAAAAAAAAAA22AAAAAAAAAAAA2222222222222224444IIIIIIIIIII
AAAAAAAAAAAAAAAAAAAA22AAAAAAAAAAAAA2222222222222224444IIIIIIIIII
AAAAAAAAAAAAAAAAAAAA22AAAAAAAAAAAAAA2222222222222224444IIIIIIIII
AAAAAAAAAAAAAAAAAAAA22AAAAAAAAAAAAAAA2222222222222224444IIIIIIII
AAAAAAAAAAAAAAAAAAAA22AAAAAAAAAAAAAAAA2222222222222224444IIIIIII
AAAAAAAAAAAAAAAAAAAA22AAAAAAAAAAAAAAAAA2222222222222224444IIIIII
AAAAAAAAAAAAAAAAAAAA22AAAAAAAAAAAAAAAAAA2222222222222224444IIIII
AAAAAAAAAAAAAAAAAAAA22AAAAAAAAAAAAAAAAAAA2222222222222224444IIII
AAAAAAAAAAAAAAAAAAAA22AAAAAAAAAAAAAAAAAAAA2222222222222224444III
AAAAAAAAAAAAAAAAAAAA22AAAAAAAAAAAAAAAAAAAAA2222222222222224444II
AAAAAAAAAAAAAAAAAAAA22AAAAAAAAAAAAAAAAAAAAAA2222222222222224444I
AAAAAAAAAAAAAAAAAAAA22AAAAAAAAAAAAAAAAAAAAAAA2222222222222224444
AAAAAAAAAAAAAAAAAAAA22AAAAAAAAAAAAAAAAAAAAAAAA222222222222222444
AAAAAAAAAAAAAAAAAAAA22AAAAAAAAAAAAAAAAAAAAAAAAA22222222222222244
AAAAAAAAAAAAAAAAAAAA22AAAAAAAAAAAAAAAAAAAAAAAAAA2222222222222224
AAAAAAAAAAAAAAAAAAAA22AAAAAAAAAAAAAAAAAAAAAAAAAAA222222222222222
AAAAAAAAAAAAAAAAAAAA22AAAAAAAAAAAAAAAAAAAAAAAAAAAA22222222222222
AAAAAAAAAAAAAAAAAAAA22AAAAAAAAAAAAAAAAAAAAAAAAAAAA22A22222222222
AAAAAAAAAAAAAAAAAAAA22AAAAAAAAAAAAAAAAAAAAAAAAAAAA22AA2222222222
AAAAAAAAAAAAAAAAAAAA22AAAAAAAAAAAAAAAAAAAAAAAAAAAA22AAA222222222
AAAAAAAAAAAAAAAAAAAA22AAAAAAAAAAAAAAAAAAAAAAAAAAAA22AAAA22222222
AAAAAAAAAAAAAAAAAAAA22AAAAAAAAAAAAAAAAAAAAAAAAAAAA22AAAAA2222222
AAAAAAAAAAAAAAAAAAAA22AAAAAAAAAAAAAAAAAAAAAAAAAAAA22AAAAAA222222
AAAAAAAAAAAAAAAAAAAA22AAAAAAAAAAAAAAAAAAAAAAAAAAAA22AAAAAAA22222
AAAAAAAAAAAAAAAAAAAA22AAAAAAAAAAAAAAAAAAAAAAAAAAAA22AAAAAAAA2222
AAAAAAAAAAAAAAAAAAAA22AAAAAAAAAAAAAAAAAAAAAAAAAAAA22AAAAAAAAA222
AAAAAAAAAAAAAAAAAAAA22AAAAAAAAAAAAAAAAAAAAAAAAAAAA22AAAAAAAAAA22
AAAAAAAAAAAAAAAAAAAA22AAAAAAAAAAAAAAAAAAAAAAAAAAAA22AAAAAAAAAAA2
AAAAAAAAAAAAAAAAAAAA22AAAAAAAAAAAAAAAAAAAAAAAAAAAA22AAAAAAAAAAAA
AAAAAAAAAAAAAAAAAAAA22AAAAAAAAAAAAAAAAAAAAAAAAAAAAI2AAAAAAAAAAAA
AAAAAAAAAAAAAAAAAAAA22AAAAAAAAAAAAAAAAAAAAAAAAAAAAIIAAAAAAAAAAAA
AAAAAAAAAAAAAAAAAAAA22AAAAAAAAAAAAAAAAAAAAAAAAAAAIIIAAAAAAAAAAAA
AAAAAAAAAAAAAAAAAAAA22AAAAAAAAAAAAAAAAAAAAAAAAAAAIIIIAAAAAAAAAAA
AAAAAAAAAAAAAAAAAAAA22AAAAAAAAAAAAAAAAAAAAAAAAAAAIIIIIAAAAAAAAAA
AAAAAAAAAAAAAAAAAAAA22AAAAAAAAAAAAAAAAAAAAAAAAAAAIIIIIIAAAAAAAAA
AAAAAAAAAAAAAAAAAAAA22AAAAAAAAAAAAAAAAAAAAAAAAAAAIIIIIIIAAAAAAAA
AAAAAAAAAAAAAAAAAAAA22AAAAAAAAAAAAAAAAAAAAAAAAAAAIIIIIIIIAAAAAAA
AAAAAAAAAAAAAAAAAAAA22AAAAAAAAAAAAAAAAAAAAAAAAAAAIIIIIIIIIAAAAAA
AAAAAAAAAAAAAAAAAAAA22AAAAAAAAAAAAAAAAAAAAAAAAAAAIIIIIIIIIIAAAAA
AAAAAAAAAAAAAAAAAAAA22AAAAAAAAAAAAAAAAAAAAAAAAAAAIIIIIIIIIIIAAAA
AAAAAAAAAAAAAAAAAAAA22AAAAAAAAAAAAAAAAAAAAAAAAAAAIIIIIIIIIIIIAAA
AAAAAAAAAAAAAAAAAAAA22AAAAAAAAAAAAAAAAAAAAAAAAAAAIIIIIIIIIIIIIAA
AAAAAAAAAAAAAAAAAAAAI2AAAAAAAAAAAAAAAAAAAAAAAAAAAIIIIIIIIIIIIIAA
AAAAAAAAAAAAAAAAAAAAIIAAAAAAAAAAAAAAAAAAAAAAAAAAAIIIIIIIIIIIIIAA
AAAAAAAAAAAAAAAAAAAAIIAAAAAAAAAAAAAAAAAAAAAIAAAAAIIIIIIIIIIIIIAA
AAAAAAAAAAAAAAAAAAAAIIAAAAAAAAAAAAAAAAAAAAAIIAAAAIIIIIIIIIIIIIAA
AAAAAAAAAAAAAAAAAAAAIIAAAAAAAAAAAAAAAAAAAAAIIIAAAIIIIIIIIIIIIIAA
AAAAAAAAAAAAAAAAAAAAIIAAAAAAAAAAAAAAAAAAAAAIIIIAAIIIIIIIIIIIIIAA
AAAAAAAAAAAAAAAAAAAAIIAAAAAAAAAAAAAAAAAAAAAIIIIIAIIIIIIIIIIIIIAA
AAAAAAAAAAAAAAAAAAAAIIAAAAAAAAAAAAAAAAAAAAAIIIIIIIIIIIIIIIIIIIAA
AAAAAAAAAAAAAAAAAAAAIIAAAAAAAAAAAAAAAAAAAAAIIIIIIIIIIIIIIIIIIIAI
AIAAAAAAAAAAAAAAAAAAIIAAAAAAAAAAAAAAAAAAAAAIIIIIIIIIIIIIIIIIIIAI
AIAAAAIAAAAAAAAAAAAAIIAAAAAAAAAAAAAAAAAAAAAIIIIIIIIIIIIIIIIIIIAI
AIAAAAIIAAAAAAAAAAAAIIAAAAAAAAAAAAAAAAAAAAAIIIIIIIIIIIIIIIIIIIAI
AIAAAAIIIAAAAAAAAAAAIIAAAAAAAAAAAAAAAAAAAAAIIIIIIIIIIIIIIIIIIIAI
AIAAAAIIIIAAAAAAAAAAIIAAAAAAAAAAAAAAAAAAAAAIIIIIIIIIIIIIIIIIIIAI
AIAAAAIIIIIAAAAAAAAAIIAAAAAAAAAAAAAAAAAAAAAIIIIIIIIIIIIIIIIIIIAI
AIAAAAIIIIIIAAAAAAAAIIAAAAAAAAAAAAAAAAAAAAAIIIIIIIIIIIIIIIIIIIAI
AIAAAAIIIIIIIAAAAAAAIIAAAAAAAAAAAAAAAAAAAAAIIIIIIIIIIIIIIIIIIIAI
AIAAIAIIIIIIIAAAAAAAIIAAAAAAAAAAAAAAAAAAAAAIIIIIIIIIIIIIIIIIIIAI
AIAAIAIIIIIIIIAAAAAAIIAAAAAAAAAAAAAAAAAAAAAIIIIIIIIIIIIIIIIIIIAI
AIAAIIIIIIIIIIAAAAAAIIAAAAAAAAAAAAAAAAAAAAAIIIIIIIIIIIIIIIIIIIAI
AIAAIIIIIIIIIIIAAAAAIIAAAAAAAAAAAAAAAAAAAAAIIIIIIIIIIIIIIIIIIIAI
AIAAIIIIIIIIIIIIAAAAIIAAAAAAAAAAAAAAAAAAAAAIIIIIIIIIIIIIIIIIIIAI
AIAAIIIIIIIIIIIIIAAAIIAAAAAAAAAAAAAAAAAAAAAIIIIIIIIIIIIIIIIIIIAI
AIAAIIIIIIIIIIIIIIAAIIAAAAAAAAAAAAAAAAAAAAAIIIIIIIIIIIIIIIIIIIAI
AIAAIIIIIIIIIIIIIIIAIIAAAAAAAAAAAAAAAAAAAAAIIIIIIIIIIIIIIIIIIIAI
AIAAIIIIIIIIIIIIIIIIIIAAAAAAAAAAAAAAAAAAAAAIIIIIIIIIIIIIIIIIIIAI
AIAAIIIIIIIIIIIIIIIIIIIAAAAAAAAAAAAAAAAAAAAIIIIIIIIIIIIIIIIIIIAI
AIAAIIIIIIIIIIIIIIIIIIIIAAAAAAAAAAAAAAAAAAAIIIIIIIIIIIIIIIIIIIAI
AIAAIIIIIIIIIIIIIIIIIIIIIAAAAAAAAAAAAAAAAAAIIIIIIIIIIIIIIIIIIIAI
AIAAIIIIIIIIIIIIIIIIIIIIIIAAAAAAAAAAAAAAAAAIIIIIIIIIIIIIIIIIIIAI
AIAAIIIIIIIIIIIIIIIIIIIIIIAAIAAAAAAAAAAAAAAIIIIIIIIIIIIIIIIIIIAI
AIAAIIIIIIIIIIIIIIIIIIIIIIAAIIAAAAAAAAAAAAAIIIIIIIIIIIIIIIIIIIAI
AIAAIIIIIIIIIIIIIIIIIIIIIIAAIIIAAAAAAAAAAAAIIIIIIIIIIIIIIIIIIIAI
AIAAIIIIIIIIIIIIIIIIIIIIIIAAIIIAAAIAAAAAAAAIIIIIIIIIIIIIIIIIIIAI
AIAAIIIIIIIIIIIIIIIIIIIIIIAAIIIAAAIIAAAAAAAIIIIIIIIIIIIIIIIIIIAI
AIAAIIIIIIIIIIIIIIIIIIIIIIAAIIIAAAIIIAAAAAAIIIIIIIIIIIIIIIIIIIAI
AIAAIIIIIIIIIIIIIIIIIIIIIIAAIIIAAAIIIIAAAAAIIIIIIIIIIIIIIIIIIIAI
AIAAIIIIIIIIIIIIIIIIIIIIIIAAIIIAAAIIIIIAAAAIIIIIIIIIIIIIIIIIIIAI
AIAAIIIIIIIIIIIIIIIIIIIIIIAAIIIAAAIIIIIIAAAIIIIIIIIIIIIIIIIIIIAI
AIAAIIIIIIIIIIIIIIIIIIIIIIAAIIIAAAIIIIIIIAAIIIIIIIIIIIIIIIIIIIAI
AIAAIIIIIIIIIIIIIIIIIIIIIIAAIIIAAAIIIIIIIIAIIIIIIIIIIIIIIIIIIIAI
AIAAIIIIIIIIIIIIIIIIIIIIIIAAIIIAAAIIIIIIIIIIIIIIIIIIIIIIIIIIIIAI
AIIAIIIIIIIIIIIIIIIIIIIIIIAAIIIAAAIIIIIIIIIIIIIIIIIIIIIIIIIIIIAI
AIIIIIIIIIIIIIIIIIIIIIIIIIAAIIIAAAIIIIIIIIIIIIIIIIIIIIIIIIIIIIAI
AIIIIIIIIIIIIIIIIIIIIIIIIIIAIIIAAAIIIIIIIIIIIIIIIIIIIIIIIIIIIIAI
AIIIIIIIIIIIIIIIIIIIIIIIIIIIIIIAAAIIIIIIIIIIIIIIIIIIIIIIIIIIIIAI
AIIIIIIIIIIIIIIIIIIIIIIIIIIIIIIIAAIIIIIIIIIIIIIIIIIIIIIIIIIIIIAI
AIIIIIIIIIIIIIIIIIIIIIIIIIIIIIIIIAIIIIIIIIIIIIIIIIIIIIIIIIIIIIAI
AIIIIIIIIIIIIIIIIIIIIIIIIIIIIIIIIIIIIIIIIIIIIIIIIIIIIIIIIIIIIIAI
AIIIIIIIIIIIIIIIIIIIIIIIIIIIIIIIIIIIIIIIIIIIIIIIIIIIIIIIIIIIIIII
[MLOP] Prefetch Degree Mean: 8.85153
[MLOP] Prefetch Degree SD: 7.11151
[MLOP] Max Score Left Mean (%): 48.58313
[MLOP] Max Score Left SD (%): 23.69844
[MLOP] Max Score Right Mean (%): 81.03004
[MLOP] Max Score Right SD (%): 22.69894

Channel_0_RQ_row_buffer_hit 1636070
Channel_0_RQ_row_buffer_miss 2778150
Channel_0_WQ_row_buffer_hit 126512
Channel_0_WQ_row_buffer_miss 667322
Channel_0_WQ_full 254
Channel_0_dbus_congested 1805317

avg_congested_cycle 8

DRAM_bw_pochs 3400973
DRAM_bw_level_0 2890782
DRAM_bw_level_1 374799
DRAM_bw_level_2 95006
DRAM_bw_level_3 40386
