*************************************************
   ChampSim Multicore Out-of-Order Simulator
   Last compiled: Dec 11 2024 17:59:53
*************************************************
parsing config file: /home/functionmain/桌面/Pythia/config/pythia.ini

trace_0 /home/functionmain/桌面/Pythia/traces/459.GemsFDTD-1211B.champsimtrace.xz
adding L2C_PREFETCHER: Scooby
Initialize SHIP state
warmup_instructions 100000000
simulation_instructions 500000000
champsim_seed 263
measure_ipc 0
measure_ipc_epoch 1000
measure_dram_bw 1
measure_dram_bw_epoch 256
measure_cache_acc 1
measure_cache_acc_epoch 1024
l1d_perfect 0
l2c_perfect 0
llc_perfect 0
l1d_semi_perfect 0
l2c_semi_perfect 0
llc_semi_perfect 0
semi_perfect_cache_page_buffer_size 64

num_cpus 1
cpu_freq 4000
dram_io_freq 600
page_size 4096
block_size 64
max_read_per_cycle 8
max_fill_per_cycle 1
dram_channels 1
log2_dram_channels 0
dram_ranks 1
dram_banks 8
dram_rows 65536
dram_columns 128
dram_row_size 8
dram_size 4096
dram_pages 1048576

fetch_width 6
decode_width 6
exec_width 4
lq_width 2
sq_width 2
retire_width 4
scheduler_size 128
branch_mispredict_penalty 20
rob_size 256
lq_size 72
sq_size 56
num_instr_destinations_sparc 4
num_instr_destinations 2
num_instr_sources 4

itlb_set 16
itlb_way 8
itlb_rq_size 16
itlb_wq_size 16
itlb_pq_size 0
itlb_mshr_size 8
itlb_latency 1

dtlb_set 16
dtlb_way 4
dtlb_rq_size 16
dtlb_wq_size 16
dtlb_pq_size 0
dtlb_mshr_size 8
dtlb_latency 1

stlb_set 128
stlb_way 12
stlb_rq_size 32
stlb_wq_size 32
stlb_pq_size 0
stlb_mshr_size 16
stlb_latency 8

l1i_size 32
l1i_set 64
l1i_way 8
l1i_rq_size 64
l1i_wq_size 64
l1i_pq_size 8
l1i_mshr_size 8
l1i_latency 1

l1d_size 32
l1d_set 64
l1d_way 8
l1d_rq_size 64
l1d_wq_size 64
l1d_pq_size 8
l1d_mshr_size 16
l1d_latency 4

l2c_size 256
l2c_set 512
l2c_way 8
l2c_rq_size 32
l2c_wq_size 32
l2c_pq_size 32
l2c_mshr_size 32
l2c_latency 10

llc_size 2048
llc_set 2048
llc_way 16
llc_rq_size 32
llc_wq_size 32
llc_pq_size 32
llc_mshr_size 64
llc_latency 20

dram_channel_width 8
dram_wq_size 64
dram_rq_size 64
tRP 15
tRCD 15
tCAS 12.5
dram_dbus_turn_around_time 30
dram_write_high_wm 56
dram_write_low_wm 48
min_dram_writes_per_switch 16
dram_mtps 600
dram_dbus_return_time 53

scooby_alpha 0.0065088
scooby_gamma 0.556301
scooby_epsilon 0.00182284
scooby_state_num_bits 10
scooby_max_states 1024
scooby_seed 200
scooby_policy EGreedy
scooby_learning_type SARSA
scooby_actions 1,3,4,5,10,11,12,22,23,30,32,-1,-3,-6,0,
scooby_max_actions 15
scooby_pt_size 256
scooby_st_size 64
scooby_max_pcs 5
scooby_max_offsets 5
scooby_max_deltas 5
scooby_reward_none -4
scooby_reward_incorrect -8
scooby_reward_correct_untimely 12
scooby_reward_correct_timely 20
scooby_brain_zero_init 0
scooby_enable_reward_all 0
scooby_enable_track_multiple 0
scooby_enable_reward_out_of_bounds 1
scooby_reward_out_of_bounds -12
scooby_state_type 1
scooby_state_hash_type 11
scooby_access_debug 0
scooby_print_access_debug 0
scooby_print_access_debug_pc deadbeef
scooby_print_access_debug_pc_count 0
scooby_print_trace 0
scooby_enable_state_action_stats 1
scooby_enable_reward_tracker_hit 0
scooby_reward_tracker_hit -2
scooby_enable_featurewise_engine 1
scooby_pref_degree 1
scooby_enable_dyn_degree 1
scooby_max_to_avg_q_thresholds 0.5,1,2,
scooby_dyn_degrees 1,2,4,4,
scooby_multi_deg_select_type 2
scooby_last_pref_offset_conf_thresholds 1,3,8,
scooby_dyn_degrees_type2 1,2,4,6,
scooby_action_tracker_size 2
scooby_high_bw_thresh 4
scooby_enable_hbw_reward 1
scooby_reward_hbw_correct_timely 20
scooby_reward_hbw_correct_untimely 12
scooby_reward_hbw_incorrect -14
scooby_reward_hbw_none -2
scooby_reward_hbw_out_of_bounds -12
scooby_reward_hbw_tracker_hit -2
scooby_last_pref_offset_conf_thresholds_hbw 1,3,8,
scooby_dyn_degrees_type2_hbw 1,2,4,6,

le_enable_trace 0
le_trace_interval 0
le_trace_file_name 
le_trace_state 0
le_enable_score_plot 0
le_plot_file_name 
le_plot_actions 
le_enable_action_trace 0
le_action_trace_interval 0
le_action_trace_name 
le_enable_action_plot 0

le_featurewise_active_features PC, PC_Delta
le_featurewise_num_tilings 3,3,
le_featurewise_num_tiles 128,128,
le_featurewise_hash_types 2,2,
le_featurewise_enable_tiling_offset 1,1,
le_featurewise_max_q_thresh 0.5
le_featurewise_enable_action_fallback 1
le_featurewise_feature_weights 1,1,
le_featurewise_enable_dynamic_weight 0
le_featurewise_weight_gradient 0.001
le_featurewise_disable_adjust_weight_all_features_align 1
le_featurewise_selective_update 0
le_featurewise_pooling_type 2
le_featurewise_enable_dyn_action_fallback 1
le_featurewise_bw_acc_check_level 1
le_featurewise_acc_thresh 2
le_featurewise_enable_trace 0
le_featurewise_trace_feature_type 0
le_featurewise_trace_feature 
le_featurewise_trace_interval 0
le_featurewise_trace_record_count 0
le_featurewise_trace_file_name 
le_featurewise_enable_score_plot 0
le_featurewise_plot_actions 
le_featurewise_plot_file_name 


Heartbeat CPU  0 instructions:    1000003 cycles:     792467 heartbeat IPC: 1.26189 cumulative IPC: 1.26189 (Simulation time: 0 hr 0 min 3 sec) 
Heartbeat CPU  0 instructions:    2000002 cycles:    1584262 heartbeat IPC: 1.26295 cumulative IPC: 1.26242 (Simulation time: 0 hr 0 min 5 sec) 
Heartbeat CPU  0 instructions:    3000003 cycles:    2376124 heartbeat IPC: 1.26285 cumulative IPC: 1.26256 (Simulation time: 0 hr 0 min 8 sec) 
Heartbeat CPU  0 instructions:    4000000 cycles:    3168016 heartbeat IPC: 1.26279 cumulative IPC: 1.26262 (Simulation time: 0 hr 0 min 11 sec) 
Heartbeat CPU  0 instructions:    5000000 cycles:    3959960 heartbeat IPC: 1.26272 cumulative IPC: 1.26264 (Simulation time: 0 hr 0 min 13 sec) 
Heartbeat CPU  0 instructions:    6000002 cycles:    4751853 heartbeat IPC: 1.26280 cumulative IPC: 1.26267 (Simulation time: 0 hr 0 min 16 sec) 
Heartbeat CPU  0 instructions:    7000000 cycles:    5543612 heartbeat IPC: 1.26301 cumulative IPC: 1.26271 (Simulation time: 0 hr 0 min 19 sec) 
Heartbeat CPU  0 instructions:    8000000 cycles:    6335596 heartbeat IPC: 1.26265 cumulative IPC: 1.26271 (Simulation time: 0 hr 0 min 21 sec) 
Heartbeat CPU  0 instructions:    9000000 cycles:    7127486 heartbeat IPC: 1.26280 cumulative IPC: 1.26272 (Simulation time: 0 hr 0 min 24 sec) 
Heartbeat CPU  0 instructions:   10000001 cycles:    7919159 heartbeat IPC: 1.26315 cumulative IPC: 1.26276 (Simulation time: 0 hr 0 min 26 sec) 
Heartbeat CPU  0 instructions:   11000000 cycles:    8710765 heartbeat IPC: 1.26325 cumulative IPC: 1.26281 (Simulation time: 0 hr 0 min 29 sec) 
Heartbeat CPU  0 instructions:   12000000 cycles:    9502642 heartbeat IPC: 1.26282 cumulative IPC: 1.26281 (Simulation time: 0 hr 0 min 32 sec) 
Heartbeat CPU  0 instructions:   13000000 cycles:   10294560 heartbeat IPC: 1.26276 cumulative IPC: 1.26280 (Simulation time: 0 hr 0 min 34 sec) 
Heartbeat CPU  0 instructions:   14000002 cycles:   11086374 heartbeat IPC: 1.26293 cumulative IPC: 1.26281 (Simulation time: 0 hr 0 min 37 sec) 
Heartbeat CPU  0 instructions:   15000000 cycles:   11878308 heartbeat IPC: 1.26273 cumulative IPC: 1.26281 (Simulation time: 0 hr 0 min 40 sec) 
Heartbeat CPU  0 instructions:   16000000 cycles:   12670125 heartbeat IPC: 1.26292 cumulative IPC: 1.26281 (Simulation time: 0 hr 0 min 42 sec) 
Heartbeat CPU  0 instructions:   17000001 cycles:   13462085 heartbeat IPC: 1.26269 cumulative IPC: 1.26281 (Simulation time: 0 hr 0 min 45 sec) 
Heartbeat CPU  0 instructions:   18000002 cycles:   14253912 heartbeat IPC: 1.26290 cumulative IPC: 1.26281 (Simulation time: 0 hr 0 min 48 sec) 
Heartbeat CPU  0 instructions:   19000000 cycles:   15045800 heartbeat IPC: 1.26280 cumulative IPC: 1.26281 (Simulation time: 0 hr 0 min 50 sec) 
Heartbeat CPU  0 instructions:   20000000 cycles:   15837353 heartbeat IPC: 1.26334 cumulative IPC: 1.26284 (Simulation time: 0 hr 0 min 53 sec) 
Heartbeat CPU  0 instructions:   21000000 cycles:   16629001 heartbeat IPC: 1.26319 cumulative IPC: 1.26285 (Simulation time: 0 hr 0 min 56 sec) 
Heartbeat CPU  0 instructions:   22000003 cycles:   17420860 heartbeat IPC: 1.26285 cumulative IPC: 1.26285 (Simulation time: 0 hr 0 min 58 sec) 
Heartbeat CPU  0 instructions:   23000000 cycles:   18212753 heartbeat IPC: 1.26279 cumulative IPC: 1.26285 (Simulation time: 0 hr 1 min 1 sec) 
Heartbeat CPU  0 instructions:   24000000 cycles:   19004618 heartbeat IPC: 1.26284 cumulative IPC: 1.26285 (Simulation time: 0 hr 1 min 4 sec) 
Heartbeat CPU  0 instructions:   25000001 cycles:   19796576 heartbeat IPC: 1.26269 cumulative IPC: 1.26284 (Simulation time: 0 hr 1 min 6 sec) 
Heartbeat CPU  0 instructions:   26000002 cycles:   20588452 heartbeat IPC: 1.26283 cumulative IPC: 1.26284 (Simulation time: 0 hr 1 min 9 sec) 
Heartbeat CPU  0 instructions:   27000001 cycles:   21380226 heartbeat IPC: 1.26299 cumulative IPC: 1.26285 (Simulation time: 0 hr 1 min 12 sec) 
Heartbeat CPU  0 instructions:   28000000 cycles:   22172199 heartbeat IPC: 1.26267 cumulative IPC: 1.26284 (Simulation time: 0 hr 1 min 14 sec) 
Heartbeat CPU  0 instructions:   29000001 cycles:   22964062 heartbeat IPC: 1.26285 cumulative IPC: 1.26284 (Simulation time: 0 hr 1 min 17 sec) 
Heartbeat CPU  0 instructions:   30000002 cycles:   23755837 heartbeat IPC: 1.26299 cumulative IPC: 1.26285 (Simulation time: 0 hr 1 min 20 sec) 
Heartbeat CPU  0 instructions:   31000001 cycles:   24547546 heartbeat IPC: 1.26309 cumulative IPC: 1.26286 (Simulation time: 0 hr 1 min 22 sec) 
Heartbeat CPU  0 instructions:   32000000 cycles:   25339089 heartbeat IPC: 1.26335 cumulative IPC: 1.26287 (Simulation time: 0 hr 1 min 25 sec) 
Heartbeat CPU  0 instructions:   33000001 cycles:   26131064 heartbeat IPC: 1.26267 cumulative IPC: 1.26286 (Simulation time: 0 hr 1 min 28 sec) 
Heartbeat CPU  0 instructions:   34000003 cycles:   26922880 heartbeat IPC: 1.26292 cumulative IPC: 1.26287 (Simulation time: 0 hr 1 min 30 sec) 
Heartbeat CPU  0 instructions:   35000001 cycles:   27714740 heartbeat IPC: 1.26285 cumulative IPC: 1.26287 (Simulation time: 0 hr 1 min 33 sec) 
Heartbeat CPU  0 instructions:   36000000 cycles:   28506703 heartbeat IPC: 1.26268 cumulative IPC: 1.26286 (Simulation time: 0 hr 1 min 36 sec) 
Heartbeat CPU  0 instructions:   37000000 cycles:   29298641 heartbeat IPC: 1.26273 cumulative IPC: 1.26286 (Simulation time: 0 hr 1 min 38 sec) 
Heartbeat CPU  0 instructions:   38000000 cycles:   30090445 heartbeat IPC: 1.26294 cumulative IPC: 1.26286 (Simulation time: 0 hr 1 min 41 sec) 
Heartbeat CPU  0 instructions:   39000001 cycles:   30882265 heartbeat IPC: 1.26291 cumulative IPC: 1.26286 (Simulation time: 0 hr 1 min 44 sec) 
Heartbeat CPU  0 instructions:   40000000 cycles:   31665271 heartbeat IPC: 1.27713 cumulative IPC: 1.26321 (Simulation time: 0 hr 1 min 46 sec) 
Heartbeat CPU  0 instructions:   41000001 cycles:   32438526 heartbeat IPC: 1.29324 cumulative IPC: 1.26393 (Simulation time: 0 hr 1 min 50 sec) 
Heartbeat CPU  0 instructions:   42000003 cycles:   33211430 heartbeat IPC: 1.29382 cumulative IPC: 1.26462 (Simulation time: 0 hr 1 min 53 sec) 
Heartbeat CPU  0 instructions:   43000001 cycles:   33987586 heartbeat IPC: 1.28840 cumulative IPC: 1.26517 (Simulation time: 0 hr 1 min 56 sec) 
Heartbeat CPU  0 instructions:   44000000 cycles:   34779129 heartbeat IPC: 1.26335 cumulative IPC: 1.26513 (Simulation time: 0 hr 1 min 59 sec) 
Heartbeat CPU  0 instructions:   45000001 cycles:   35570506 heartbeat IPC: 1.26362 cumulative IPC: 1.26509 (Simulation time: 0 hr 2 min 2 sec) 
Heartbeat CPU  0 instructions:   46000003 cycles:   36362120 heartbeat IPC: 1.26324 cumulative IPC: 1.26505 (Simulation time: 0 hr 2 min 4 sec) 
Heartbeat CPU  0 instructions:   47000001 cycles:   37153456 heartbeat IPC: 1.26368 cumulative IPC: 1.26502 (Simulation time: 0 hr 2 min 7 sec) 
Heartbeat CPU  0 instructions:   48000000 cycles:   37944891 heartbeat IPC: 1.26353 cumulative IPC: 1.26499 (Simulation time: 0 hr 2 min 10 sec) 
Heartbeat CPU  0 instructions:   49000001 cycles:   38736124 heartbeat IPC: 1.26385 cumulative IPC: 1.26497 (Simulation time: 0 hr 2 min 12 sec) 
Heartbeat CPU  0 instructions:   50000003 cycles:   39527315 heartbeat IPC: 1.26392 cumulative IPC: 1.26495 (Simulation time: 0 hr 2 min 15 sec) 
Heartbeat CPU  0 instructions:   51000001 cycles:   40318865 heartbeat IPC: 1.26334 cumulative IPC: 1.26492 (Simulation time: 0 hr 2 min 18 sec) 
Heartbeat CPU  0 instructions:   52000000 cycles:   41110355 heartbeat IPC: 1.26344 cumulative IPC: 1.26489 (Simulation time: 0 hr 2 min 20 sec) 
Heartbeat CPU  0 instructions:   53000003 cycles:   41901956 heartbeat IPC: 1.26327 cumulative IPC: 1.26486 (Simulation time: 0 hr 2 min 23 sec) 
Heartbeat CPU  0 instructions:   54000002 cycles:   42693469 heartbeat IPC: 1.26340 cumulative IPC: 1.26483 (Simulation time: 0 hr 2 min 26 sec) 
Heartbeat CPU  0 instructions:   55000001 cycles:   43484840 heartbeat IPC: 1.26363 cumulative IPC: 1.26481 (Simulation time: 0 hr 2 min 28 sec) 
Heartbeat CPU  0 instructions:   56000000 cycles:   44276123 heartbeat IPC: 1.26377 cumulative IPC: 1.26479 (Simulation time: 0 hr 2 min 31 sec) 
Heartbeat CPU  0 instructions:   57000000 cycles:   45067703 heartbeat IPC: 1.26330 cumulative IPC: 1.26476 (Simulation time: 0 hr 2 min 34 sec) 
Heartbeat CPU  0 instructions:   58000002 cycles:   45859043 heartbeat IPC: 1.26368 cumulative IPC: 1.26475 (Simulation time: 0 hr 2 min 36 sec) 
Heartbeat CPU  0 instructions:   59000000 cycles:   46650553 heartbeat IPC: 1.26341 cumulative IPC: 1.26472 (Simulation time: 0 hr 2 min 39 sec) 
Heartbeat CPU  0 instructions:   60000000 cycles:   47441885 heartbeat IPC: 1.26369 cumulative IPC: 1.26471 (Simulation time: 0 hr 2 min 42 sec) 
Heartbeat CPU  0 instructions:   61000000 cycles:   48233047 heartbeat IPC: 1.26396 cumulative IPC: 1.26469 (Simulation time: 0 hr 2 min 44 sec) 
Heartbeat CPU  0 instructions:   62000002 cycles:   49024722 heartbeat IPC: 1.26315 cumulative IPC: 1.26467 (Simulation time: 0 hr 2 min 47 sec) 
Heartbeat CPU  0 instructions:   63000000 cycles:   49816213 heartbeat IPC: 1.26344 cumulative IPC: 1.26465 (Simulation time: 0 hr 2 min 50 sec) 
Heartbeat CPU  0 instructions:   64000000 cycles:   50607629 heartbeat IPC: 1.26356 cumulative IPC: 1.26463 (Simulation time: 0 hr 2 min 52 sec) 
Heartbeat CPU  0 instructions:   65000000 cycles:   51399216 heartbeat IPC: 1.26329 cumulative IPC: 1.26461 (Simulation time: 0 hr 2 min 55 sec) 
Heartbeat CPU  0 instructions:   66000003 cycles:   52190634 heartbeat IPC: 1.26356 cumulative IPC: 1.26459 (Simulation time: 0 hr 2 min 57 sec) 
Heartbeat CPU  0 instructions:   67000000 cycles:   52982034 heartbeat IPC: 1.26358 cumulative IPC: 1.26458 (Simulation time: 0 hr 3 min 0 sec) 
Heartbeat CPU  0 instructions:   68000000 cycles:   53773292 heartbeat IPC: 1.26381 cumulative IPC: 1.26457 (Simulation time: 0 hr 3 min 3 sec) 
Heartbeat CPU  0 instructions:   69000001 cycles:   54564780 heartbeat IPC: 1.26344 cumulative IPC: 1.26455 (Simulation time: 0 hr 3 min 5 sec) 
Heartbeat CPU  0 instructions:   70000002 cycles:   55356048 heartbeat IPC: 1.26380 cumulative IPC: 1.26454 (Simulation time: 0 hr 3 min 8 sec) 
Heartbeat CPU  0 instructions:   71000001 cycles:   56147504 heartbeat IPC: 1.26349 cumulative IPC: 1.26453 (Simulation time: 0 hr 3 min 11 sec) 
Heartbeat CPU  0 instructions:   72000000 cycles:   56938700 heartbeat IPC: 1.26391 cumulative IPC: 1.26452 (Simulation time: 0 hr 3 min 13 sec) 
Heartbeat CPU  0 instructions:   73000003 cycles:   57730491 heartbeat IPC: 1.26296 cumulative IPC: 1.26450 (Simulation time: 0 hr 3 min 16 sec) 
Heartbeat CPU  0 instructions:   74000003 cycles:   58521813 heartbeat IPC: 1.26371 cumulative IPC: 1.26449 (Simulation time: 0 hr 3 min 19 sec) 
Heartbeat CPU  0 instructions:   75000001 cycles:   59313200 heartbeat IPC: 1.26360 cumulative IPC: 1.26447 (Simulation time: 0 hr 3 min 21 sec) 
Heartbeat CPU  0 instructions:   76000000 cycles:   60104785 heartbeat IPC: 1.26329 cumulative IPC: 1.26446 (Simulation time: 0 hr 3 min 24 sec) 
Heartbeat CPU  0 instructions:   77000002 cycles:   60896056 heartbeat IPC: 1.26379 cumulative IPC: 1.26445 (Simulation time: 0 hr 3 min 27 sec) 
Heartbeat CPU  0 instructions:   78000001 cycles:   61687494 heartbeat IPC: 1.26352 cumulative IPC: 1.26444 (Simulation time: 0 hr 3 min 29 sec) 
Heartbeat CPU  0 instructions:   79000000 cycles:   62478812 heartbeat IPC: 1.26371 cumulative IPC: 1.26443 (Simulation time: 0 hr 3 min 32 sec) 
Heartbeat CPU  0 instructions:   80000000 cycles:   63270248 heartbeat IPC: 1.26353 cumulative IPC: 1.26442 (Simulation time: 0 hr 3 min 35 sec) 
Heartbeat CPU  0 instructions:   81000000 cycles:   64061611 heartbeat IPC: 1.26364 cumulative IPC: 1.26441 (Simulation time: 0 hr 3 min 37 sec) 
Heartbeat CPU  0 instructions:   82000002 cycles:   64852908 heartbeat IPC: 1.26375 cumulative IPC: 1.26440 (Simulation time: 0 hr 3 min 40 sec) 
Heartbeat CPU  0 instructions:   83000000 cycles:   65644282 heartbeat IPC: 1.26362 cumulative IPC: 1.26439 (Simulation time: 0 hr 3 min 43 sec) 
Heartbeat CPU  0 instructions:   84000000 cycles:   66435709 heartbeat IPC: 1.26354 cumulative IPC: 1.26438 (Simulation time: 0 hr 3 min 45 sec) 
Heartbeat CPU  0 instructions:   85000000 cycles:   67227130 heartbeat IPC: 1.26355 cumulative IPC: 1.26437 (Simulation time: 0 hr 3 min 48 sec) 
Heartbeat CPU  0 instructions:   86000002 cycles:   68018468 heartbeat IPC: 1.26369 cumulative IPC: 1.26436 (Simulation time: 0 hr 3 min 51 sec) 
Heartbeat CPU  0 instructions:   87000000 cycles:   68809856 heartbeat IPC: 1.26360 cumulative IPC: 1.26435 (Simulation time: 0 hr 3 min 53 sec) 
Heartbeat CPU  0 instructions:   88000000 cycles:   69601104 heartbeat IPC: 1.26383 cumulative IPC: 1.26435 (Simulation time: 0 hr 3 min 56 sec) 
Heartbeat CPU  0 instructions:   89000000 cycles:   70392591 heartbeat IPC: 1.26344 cumulative IPC: 1.26434 (Simulation time: 0 hr 3 min 59 sec) 
Heartbeat CPU  0 instructions:   90000003 cycles:   71183904 heartbeat IPC: 1.26373 cumulative IPC: 1.26433 (Simulation time: 0 hr 4 min 1 sec) 
Heartbeat CPU  0 instructions:   91000000 cycles:   71975166 heartbeat IPC: 1.26380 cumulative IPC: 1.26433 (Simulation time: 0 hr 4 min 4 sec) 
Heartbeat CPU  0 instructions:   92000000 cycles:   72766536 heartbeat IPC: 1.26363 cumulative IPC: 1.26432 (Simulation time: 0 hr 4 min 7 sec) 
Heartbeat CPU  0 instructions:   93000001 cycles:   73557784 heartbeat IPC: 1.26383 cumulative IPC: 1.26431 (Simulation time: 0 hr 4 min 9 sec) 
Heartbeat CPU  0 instructions:   94000001 cycles:   74349282 heartbeat IPC: 1.26343 cumulative IPC: 1.26430 (Simulation time: 0 hr 4 min 12 sec) 
Heartbeat CPU  0 instructions:   95000000 cycles:   75140587 heartbeat IPC: 1.26373 cumulative IPC: 1.26430 (Simulation time: 0 hr 4 min 15 sec) 
Heartbeat CPU  0 instructions:   96000000 cycles:   75931916 heartbeat IPC: 1.26370 cumulative IPC: 1.26429 (Simulation time: 0 hr 4 min 17 sec) 
Heartbeat CPU  0 instructions:   97000003 cycles:   76723431 heartbeat IPC: 1.26340 cumulative IPC: 1.26428 (Simulation time: 0 hr 4 min 20 sec) 
Heartbeat CPU  0 instructions:   98000003 cycles:   77514760 heartbeat IPC: 1.26370 cumulative IPC: 1.26428 (Simulation time: 0 hr 4 min 23 sec) 
Heartbeat CPU  0 instructions:   99000003 cycles:   78306071 heartbeat IPC: 1.26373 cumulative IPC: 1.26427 (Simulation time: 0 hr 4 min 25 sec) 
Heartbeat CPU  0 instructions:  100000000 cycles:   79097342 heartbeat IPC: 1.26379 cumulative IPC: 1.26426 (Simulation time: 0 hr 4 min 28 sec) 

Warmup complete CPU  0 instructions:  100000001 cycles:   79097343 (Simulation time: 0 hr 4 min 28 sec) 

Heartbeat CPU  0 instructions:  101000001 cycles:   80797997 heartbeat IPC: 0.58801 cumulative IPC: 0.58801 (Simulation time: 0 hr 4 min 31 sec) 
Heartbeat CPU  0 instructions:  102000002 cycles:   82500537 heartbeat IPC: 0.58736 cumulative IPC: 0.58768 (Simulation time: 0 hr 4 min 35 sec) 
Heartbeat CPU  0 instructions:  103000003 cycles:   84199265 heartbeat IPC: 0.58868 cumulative IPC: 0.58801 (Simulation time: 0 hr 4 min 38 sec) 
Heartbeat CPU  0 instructions:  104000000 cycles:   85895845 heartbeat IPC: 0.58942 cumulative IPC: 0.58836 (Simulation time: 0 hr 4 min 41 sec) 
Heartbeat CPU  0 instructions:  105000001 cycles:   87602090 heartbeat IPC: 0.58608 cumulative IPC: 0.58791 (Simulation time: 0 hr 4 min 44 sec) 
Heartbeat CPU  0 instructions:  106000002 cycles:   89309973 heartbeat IPC: 0.58552 cumulative IPC: 0.58751 (Simulation time: 0 hr 4 min 48 sec) 
Heartbeat CPU  0 instructions:  107000000 cycles:   91014671 heartbeat IPC: 0.58661 cumulative IPC: 0.58738 (Simulation time: 0 hr 4 min 51 sec) 
Heartbeat CPU  0 instructions:  108000000 cycles:   92721426 heartbeat IPC: 0.58591 cumulative IPC: 0.58720 (Simulation time: 0 hr 4 min 54 sec) 
Heartbeat CPU  0 instructions:  109000000 cycles:   94424308 heartbeat IPC: 0.58724 cumulative IPC: 0.58720 (Simulation time: 0 hr 4 min 58 sec) 
Heartbeat CPU  0 instructions:  110000002 cycles:   96124517 heartbeat IPC: 0.58816 cumulative IPC: 0.58730 (Simulation time: 0 hr 5 min 1 sec) 
Heartbeat CPU  0 instructions:  111000001 cycles:   97821951 heartbeat IPC: 0.58912 cumulative IPC: 0.58746 (Simulation time: 0 hr 5 min 4 sec) 
Heartbeat CPU  0 instructions:  112000000 cycles:   99522406 heartbeat IPC: 0.58808 cumulative IPC: 0.58751 (Simulation time: 0 hr 5 min 8 sec) 
Heartbeat CPU  0 instructions:  113000000 cycles:  101224651 heartbeat IPC: 0.58746 cumulative IPC: 0.58751 (Simulation time: 0 hr 5 min 11 sec) 
Heartbeat CPU  0 instructions:  114000002 cycles:  102929619 heartbeat IPC: 0.58652 cumulative IPC: 0.58744 (Simulation time: 0 hr 5 min 14 sec) 
Heartbeat CPU  0 instructions:  115000002 cycles:  104629410 heartbeat IPC: 0.58831 cumulative IPC: 0.58750 (Simulation time: 0 hr 5 min 18 sec) 
Heartbeat CPU  0 instructions:  116000000 cycles:  106336812 heartbeat IPC: 0.58568 cumulative IPC: 0.58738 (Simulation time: 0 hr 5 min 21 sec) 
Heartbeat CPU  0 instructions:  117000001 cycles:  108040453 heartbeat IPC: 0.58698 cumulative IPC: 0.58736 (Simulation time: 0 hr 5 min 24 sec) 
Heartbeat CPU  0 instructions:  118000000 cycles:  109746915 heartbeat IPC: 0.58601 cumulative IPC: 0.58728 (Simulation time: 0 hr 5 min 27 sec) 
Heartbeat CPU  0 instructions:  119000000 cycles:  111449087 heartbeat IPC: 0.58748 cumulative IPC: 0.58729 (Simulation time: 0 hr 5 min 31 sec) 
Heartbeat CPU  0 instructions:  120000000 cycles:  113149530 heartbeat IPC: 0.58808 cumulative IPC: 0.58733 (Simulation time: 0 hr 5 min 34 sec) 
Heartbeat CPU  0 instructions:  121000003 cycles:  114852401 heartbeat IPC: 0.58725 cumulative IPC: 0.58733 (Simulation time: 0 hr 5 min 37 sec) 
Heartbeat CPU  0 instructions:  122000001 cycles:  116555291 heartbeat IPC: 0.58724 cumulative IPC: 0.58733 (Simulation time: 0 hr 5 min 41 sec) 
Heartbeat CPU  0 instructions:  123000000 cycles:  118256826 heartbeat IPC: 0.58770 cumulative IPC: 0.58734 (Simulation time: 0 hr 5 min 44 sec) 
Heartbeat CPU  0 instructions:  124000000 cycles:  119958002 heartbeat IPC: 0.58783 cumulative IPC: 0.58736 (Simulation time: 0 hr 5 min 47 sec) 
Heartbeat CPU  0 instructions:  125000001 cycles:  121658871 heartbeat IPC: 0.58794 cumulative IPC: 0.58738 (Simulation time: 0 hr 5 min 51 sec) 
Heartbeat CPU  0 instructions:  126000001 cycles:  123365283 heartbeat IPC: 0.58602 cumulative IPC: 0.58733 (Simulation time: 0 hr 5 min 54 sec) 
Heartbeat CPU  0 instructions:  127000003 cycles:  125070563 heartbeat IPC: 0.58642 cumulative IPC: 0.58730 (Simulation time: 0 hr 5 min 57 sec) 
Heartbeat CPU  0 instructions:  128000000 cycles:  126777285 heartbeat IPC: 0.58592 cumulative IPC: 0.58725 (Simulation time: 0 hr 6 min 1 sec) 
Heartbeat CPU  0 instructions:  129000003 cycles:  128482642 heartbeat IPC: 0.58639 cumulative IPC: 0.58722 (Simulation time: 0 hr 6 min 4 sec) 
Heartbeat CPU  0 instructions:  130000001 cycles:  130184376 heartbeat IPC: 0.58763 cumulative IPC: 0.58723 (Simulation time: 0 hr 6 min 7 sec) 
Heartbeat CPU  0 instructions:  131000000 cycles:  131886966 heartbeat IPC: 0.58734 cumulative IPC: 0.58724 (Simulation time: 0 hr 6 min 11 sec) 
Heartbeat CPU  0 instructions:  132000000 cycles:  133589727 heartbeat IPC: 0.58728 cumulative IPC: 0.58724 (Simulation time: 0 hr 6 min 14 sec) 
Heartbeat CPU  0 instructions:  133000000 cycles:  135289858 heartbeat IPC: 0.58819 cumulative IPC: 0.58727 (Simulation time: 0 hr 6 min 17 sec) 
Heartbeat CPU  0 instructions:  134000002 cycles:  136993017 heartbeat IPC: 0.58715 cumulative IPC: 0.58726 (Simulation time: 0 hr 6 min 21 sec) 
Heartbeat CPU  0 instructions:  135000003 cycles:  138698457 heartbeat IPC: 0.58636 cumulative IPC: 0.58724 (Simulation time: 0 hr 6 min 24 sec) 
Heartbeat CPU  0 instructions:  136000000 cycles:  140400139 heartbeat IPC: 0.58765 cumulative IPC: 0.58725 (Simulation time: 0 hr 6 min 27 sec) 
Heartbeat CPU  0 instructions:  137000000 cycles:  142112018 heartbeat IPC: 0.58415 cumulative IPC: 0.58716 (Simulation time: 0 hr 6 min 30 sec) 
Heartbeat CPU  0 instructions:  138000000 cycles:  143817517 heartbeat IPC: 0.58634 cumulative IPC: 0.58714 (Simulation time: 0 hr 6 min 34 sec) 
Heartbeat CPU  0 instructions:  139000002 cycles:  145525256 heartbeat IPC: 0.58557 cumulative IPC: 0.58710 (Simulation time: 0 hr 6 min 37 sec) 
Heartbeat CPU  0 instructions:  140000000 cycles:  147227138 heartbeat IPC: 0.58758 cumulative IPC: 0.58711 (Simulation time: 0 hr 6 min 40 sec) 
Heartbeat CPU  0 instructions:  141000002 cycles:  148929330 heartbeat IPC: 0.58748 cumulative IPC: 0.58712 (Simulation time: 0 hr 6 min 44 sec) 
Heartbeat CPU  0 instructions:  142000000 cycles:  150630162 heartbeat IPC: 0.58795 cumulative IPC: 0.58714 (Simulation time: 0 hr 6 min 47 sec) 
Heartbeat CPU  0 instructions:  143000003 cycles:  152338187 heartbeat IPC: 0.58547 cumulative IPC: 0.58710 (Simulation time: 0 hr 6 min 50 sec) 
Heartbeat CPU  0 instructions:  144000000 cycles:  154039740 heartbeat IPC: 0.58770 cumulative IPC: 0.58712 (Simulation time: 0 hr 6 min 54 sec) 
Heartbeat CPU  0 instructions:  145000003 cycles:  155746286 heartbeat IPC: 0.58598 cumulative IPC: 0.58709 (Simulation time: 0 hr 6 min 57 sec) 
Heartbeat CPU  0 instructions:  146000001 cycles:  157447166 heartbeat IPC: 0.58793 cumulative IPC: 0.58711 (Simulation time: 0 hr 7 min 0 sec) 
Heartbeat CPU  0 instructions:  147000003 cycles:  159145459 heartbeat IPC: 0.58883 cumulative IPC: 0.58715 (Simulation time: 0 hr 7 min 3 sec) 
Heartbeat CPU  0 instructions:  148000000 cycles:  160837837 heartbeat IPC: 0.59088 cumulative IPC: 0.58722 (Simulation time: 0 hr 7 min 7 sec) 
Heartbeat CPU  0 instructions:  149000003 cycles:  162517761 heartbeat IPC: 0.59527 cumulative IPC: 0.58739 (Simulation time: 0 hr 7 min 10 sec) 
Heartbeat CPU  0 instructions:  150000001 cycles:  164202695 heartbeat IPC: 0.59349 cumulative IPC: 0.58751 (Simulation time: 0 hr 7 min 13 sec) 
Heartbeat CPU  0 instructions:  151000003 cycles:  165878291 heartbeat IPC: 0.59680 cumulative IPC: 0.58769 (Simulation time: 0 hr 7 min 17 sec) 
Heartbeat CPU  0 instructions:  152000000 cycles:  167557356 heartbeat IPC: 0.59557 cumulative IPC: 0.58784 (Simulation time: 0 hr 7 min 20 sec) 
Heartbeat CPU  0 instructions:  153000003 cycles:  169236098 heartbeat IPC: 0.59569 cumulative IPC: 0.58798 (Simulation time: 0 hr 7 min 23 sec) 
Heartbeat CPU  0 instructions:  154000001 cycles:  170913606 heartbeat IPC: 0.59612 cumulative IPC: 0.58813 (Simulation time: 0 hr 7 min 26 sec) 
Heartbeat CPU  0 instructions:  155000001 cycles:  172594675 heartbeat IPC: 0.59486 cumulative IPC: 0.58825 (Simulation time: 0 hr 7 min 30 sec) 
Heartbeat CPU  0 instructions:  156000000 cycles:  174279312 heartbeat IPC: 0.59360 cumulative IPC: 0.58835 (Simulation time: 0 hr 7 min 33 sec) 
Heartbeat CPU  0 instructions:  157000001 cycles:  175962249 heartbeat IPC: 0.59420 cumulative IPC: 0.58845 (Simulation time: 0 hr 7 min 36 sec) 
Heartbeat CPU  0 instructions:  158000003 cycles:  177642018 heartbeat IPC: 0.59532 cumulative IPC: 0.58857 (Simulation time: 0 hr 7 min 40 sec) 
Heartbeat CPU  0 instructions:  159000003 cycles:  179328447 heartbeat IPC: 0.59297 cumulative IPC: 0.58864 (Simulation time: 0 hr 7 min 43 sec) 
Heartbeat CPU  0 instructions:  160000000 cycles:  181009642 heartbeat IPC: 0.59481 cumulative IPC: 0.58874 (Simulation time: 0 hr 7 min 46 sec) 
Heartbeat CPU  0 instructions:  161000002 cycles:  182690432 heartbeat IPC: 0.59496 cumulative IPC: 0.58884 (Simulation time: 0 hr 7 min 49 sec) 
Heartbeat CPU  0 instructions:  162000000 cycles:  184365544 heartbeat IPC: 0.59697 cumulative IPC: 0.58897 (Simulation time: 0 hr 7 min 53 sec) 
Heartbeat CPU  0 instructions:  163000000 cycles:  186037768 heartbeat IPC: 0.59801 cumulative IPC: 0.58911 (Simulation time: 0 hr 7 min 56 sec) 
Heartbeat CPU  0 instructions:  164000000 cycles:  187710270 heartbeat IPC: 0.59791 cumulative IPC: 0.58925 (Simulation time: 0 hr 7 min 59 sec) 
Heartbeat CPU  0 instructions:  165000002 cycles:  189391881 heartbeat IPC: 0.59467 cumulative IPC: 0.58933 (Simulation time: 0 hr 8 min 3 sec) 
Heartbeat CPU  0 instructions:  166000003 cycles:  191070925 heartbeat IPC: 0.59558 cumulative IPC: 0.58942 (Simulation time: 0 hr 8 min 6 sec) 
Heartbeat CPU  0 instructions:  167000002 cycles:  192750730 heartbeat IPC: 0.59531 cumulative IPC: 0.58951 (Simulation time: 0 hr 8 min 9 sec) 
Heartbeat CPU  0 instructions:  168000000 cycles:  194430440 heartbeat IPC: 0.59534 cumulative IPC: 0.58960 (Simulation time: 0 hr 8 min 12 sec) 
Heartbeat CPU  0 instructions:  169000001 cycles:  196119432 heartbeat IPC: 0.59207 cumulative IPC: 0.58963 (Simulation time: 0 hr 8 min 16 sec) 
Heartbeat CPU  0 instructions:  170000000 cycles:  197802832 heartbeat IPC: 0.59404 cumulative IPC: 0.58969 (Simulation time: 0 hr 8 min 19 sec) 
Heartbeat CPU  0 instructions:  171000003 cycles:  199488348 heartbeat IPC: 0.59329 cumulative IPC: 0.58975 (Simulation time: 0 hr 8 min 22 sec) 
Heartbeat CPU  0 instructions:  172000000 cycles:  201170514 heartbeat IPC: 0.59447 cumulative IPC: 0.58981 (Simulation time: 0 hr 8 min 26 sec) 
Heartbeat CPU  0 instructions:  173000000 cycles:  202851502 heartbeat IPC: 0.59489 cumulative IPC: 0.58988 (Simulation time: 0 hr 8 min 29 sec) 
Heartbeat CPU  0 instructions:  174000001 cycles:  204524561 heartbeat IPC: 0.59771 cumulative IPC: 0.58998 (Simulation time: 0 hr 8 min 32 sec) 
Heartbeat CPU  0 instructions:  175000003 cycles:  206201258 heartbeat IPC: 0.59641 cumulative IPC: 0.59007 (Simulation time: 0 hr 8 min 35 sec) 
Heartbeat CPU  0 instructions:  176000000 cycles:  207881691 heartbeat IPC: 0.59508 cumulative IPC: 0.59013 (Simulation time: 0 hr 8 min 39 sec) 
Heartbeat CPU  0 instructions:  177000003 cycles:  209558772 heartbeat IPC: 0.59628 cumulative IPC: 0.59021 (Simulation time: 0 hr 8 min 42 sec) 
Heartbeat CPU  0 instructions:  178000001 cycles:  211242168 heartbeat IPC: 0.59404 cumulative IPC: 0.59026 (Simulation time: 0 hr 8 min 45 sec) 
Heartbeat CPU  0 instructions:  179000000 cycles:  212918402 heartbeat IPC: 0.59657 cumulative IPC: 0.59034 (Simulation time: 0 hr 8 min 49 sec) 
Heartbeat CPU  0 instructions:  180000000 cycles:  214607344 heartbeat IPC: 0.59209 cumulative IPC: 0.59036 (Simulation time: 0 hr 8 min 52 sec) 
Heartbeat CPU  0 instructions:  181000000 cycles:  216287810 heartbeat IPC: 0.59507 cumulative IPC: 0.59042 (Simulation time: 0 hr 8 min 55 sec) 
Heartbeat CPU  0 instructions:  182000001 cycles:  217969953 heartbeat IPC: 0.59448 cumulative IPC: 0.59047 (Simulation time: 0 hr 8 min 59 sec) 
Heartbeat CPU  0 instructions:  183000002 cycles:  219652254 heartbeat IPC: 0.59442 cumulative IPC: 0.59052 (Simulation time: 0 hr 9 min 2 sec) 
Heartbeat CPU  0 instructions:  184000000 cycles:  221328508 heartbeat IPC: 0.59657 cumulative IPC: 0.59059 (Simulation time: 0 hr 9 min 5 sec) 
Heartbeat CPU  0 instructions:  185000001 cycles:  223002646 heartbeat IPC: 0.59732 cumulative IPC: 0.59067 (Simulation time: 0 hr 9 min 8 sec) 
Heartbeat CPU  0 instructions:  186000000 cycles:  224682470 heartbeat IPC: 0.59530 cumulative IPC: 0.59072 (Simulation time: 0 hr 9 min 12 sec) 
Heartbeat CPU  0 instructions:  187000000 cycles:  226275884 heartbeat IPC: 0.62758 cumulative IPC: 0.59112 (Simulation time: 0 hr 9 min 15 sec) 
Heartbeat CPU  0 instructions:  188000000 cycles:  227713802 heartbeat IPC: 0.69545 cumulative IPC: 0.59213 (Simulation time: 0 hr 9 min 18 sec) 
Heartbeat CPU  0 instructions:  189000002 cycles:  229145532 heartbeat IPC: 0.69846 cumulative IPC: 0.59314 (Simulation time: 0 hr 9 min 21 sec) 
Heartbeat CPU  0 instructions:  190000003 cycles:  230594797 heartbeat IPC: 0.69001 cumulative IPC: 0.59407 (Simulation time: 0 hr 9 min 25 sec) 
Heartbeat CPU  0 instructions:  191000000 cycles:  232037211 heartbeat IPC: 0.69328 cumulative IPC: 0.59501 (Simulation time: 0 hr 9 min 28 sec) 
Heartbeat CPU  0 instructions:  192000000 cycles:  233469336 heartbeat IPC: 0.69826 cumulative IPC: 0.59596 (Simulation time: 0 hr 9 min 31 sec) 
Heartbeat CPU  0 instructions:  193000001 cycles:  234913454 heartbeat IPC: 0.69246 cumulative IPC: 0.59686 (Simulation time: 0 hr 9 min 34 sec) 
Heartbeat CPU  0 instructions:  194000000 cycles:  236355165 heartbeat IPC: 0.69362 cumulative IPC: 0.59774 (Simulation time: 0 hr 9 min 37 sec) 
Heartbeat CPU  0 instructions:  195000000 cycles:  237798467 heartbeat IPC: 0.69286 cumulative IPC: 0.59861 (Simulation time: 0 hr 9 min 41 sec) 
Heartbeat CPU  0 instructions:  196000000 cycles:  239249408 heartbeat IPC: 0.68921 cumulative IPC: 0.59943 (Simulation time: 0 hr 9 min 44 sec) 
Heartbeat CPU  0 instructions:  197000000 cycles:  240666817 heartbeat IPC: 0.70551 cumulative IPC: 0.60036 (Simulation time: 0 hr 9 min 47 sec) 
Heartbeat CPU  0 instructions:  198000003 cycles:  242110571 heartbeat IPC: 0.69264 cumulative IPC: 0.60118 (Simulation time: 0 hr 9 min 50 sec) 
Heartbeat CPU  0 instructions:  199000001 cycles:  243566450 heartbeat IPC: 0.68687 cumulative IPC: 0.60194 (Simulation time: 0 hr 9 min 53 sec) 
Heartbeat CPU  0 instructions:  200000000 cycles:  245000022 heartbeat IPC: 0.69756 cumulative IPC: 0.60276 (Simulation time: 0 hr 9 min 56 sec) 
Heartbeat CPU  0 instructions:  201000003 cycles:  246447665 heartbeat IPC: 0.69078 cumulative IPC: 0.60352 (Simulation time: 0 hr 10 min 0 sec) 
Heartbeat CPU  0 instructions:  202000000 cycles:  247909428 heartbeat IPC: 0.68410 cumulative IPC: 0.60422 (Simulation time: 0 hr 10 min 3 sec) 
Heartbeat CPU  0 instructions:  203000001 cycles:  249356121 heartbeat IPC: 0.69123 cumulative IPC: 0.60496 (Simulation time: 0 hr 10 min 6 sec) 
Heartbeat CPU  0 instructions:  204000000 cycles:  250806806 heartbeat IPC: 0.68933 cumulative IPC: 0.60567 (Simulation time: 0 hr 10 min 9 sec) 
Heartbeat CPU  0 instructions:  205000000 cycles:  252268032 heartbeat IPC: 0.68436 cumulative IPC: 0.60634 (Simulation time: 0 hr 10 min 13 sec) 
Heartbeat CPU  0 instructions:  206000002 cycles:  253689089 heartbeat IPC: 0.70370 cumulative IPC: 0.60713 (Simulation time: 0 hr 10 min 16 sec) 
Heartbeat CPU  0 instructions:  207000000 cycles:  255141506 heartbeat IPC: 0.68851 cumulative IPC: 0.60780 (Simulation time: 0 hr 10 min 19 sec) 
Heartbeat CPU  0 instructions:  208000000 cycles:  256595358 heartbeat IPC: 0.68783 cumulative IPC: 0.60846 (Simulation time: 0 hr 10 min 22 sec) 
Heartbeat CPU  0 instructions:  209000003 cycles:  258025969 heartbeat IPC: 0.69900 cumulative IPC: 0.60918 (Simulation time: 0 hr 10 min 25 sec) 
Heartbeat CPU  0 instructions:  210000000 cycles:  259500528 heartbeat IPC: 0.67817 cumulative IPC: 0.60975 (Simulation time: 0 hr 10 min 29 sec) 
Heartbeat CPU  0 instructions:  211000003 cycles:  260938051 heartbeat IPC: 0.69564 cumulative IPC: 0.61042 (Simulation time: 0 hr 10 min 32 sec) 
Heartbeat CPU  0 instructions:  212000000 cycles:  262396900 heartbeat IPC: 0.68547 cumulative IPC: 0.61102 (Simulation time: 0 hr 10 min 35 sec) 
Heartbeat CPU  0 instructions:  213000003 cycles:  263859540 heartbeat IPC: 0.68370 cumulative IPC: 0.61160 (Simulation time: 0 hr 10 min 38 sec) 
Heartbeat CPU  0 instructions:  214000000 cycles:  265315129 heartbeat IPC: 0.68701 cumulative IPC: 0.61219 (Simulation time: 0 hr 10 min 42 sec) 
Heartbeat CPU  0 instructions:  215000002 cycles:  266741685 heartbeat IPC: 0.70099 cumulative IPC: 0.61286 (Simulation time: 0 hr 10 min 45 sec) 
Heartbeat CPU  0 instructions:  216000000 cycles:  268199395 heartbeat IPC: 0.68601 cumulative IPC: 0.61343 (Simulation time: 0 hr 10 min 48 sec) 
Heartbeat CPU  0 instructions:  217000001 cycles:  269634465 heartbeat IPC: 0.69683 cumulative IPC: 0.61405 (Simulation time: 0 hr 10 min 51 sec) 
Heartbeat CPU  0 instructions:  218000000 cycles:  271066554 heartbeat IPC: 0.69828 cumulative IPC: 0.61468 (Simulation time: 0 hr 10 min 54 sec) 
Heartbeat CPU  0 instructions:  219000000 cycles:  272524978 heartbeat IPC: 0.68567 cumulative IPC: 0.61522 (Simulation time: 0 hr 10 min 58 sec) 
Heartbeat CPU  0 instructions:  220000000 cycles:  273951995 heartbeat IPC: 0.70076 cumulative IPC: 0.61584 (Simulation time: 0 hr 11 min 1 sec) 
Heartbeat CPU  0 instructions:  221000000 cycles:  275406967 heartbeat IPC: 0.68730 cumulative IPC: 0.61637 (Simulation time: 0 hr 11 min 4 sec) 
Heartbeat CPU  0 instructions:  222000000 cycles:  276859294 heartbeat IPC: 0.68855 cumulative IPC: 0.61690 (Simulation time: 0 hr 11 min 7 sec) 
Heartbeat CPU  0 instructions:  223000003 cycles:  278287994 heartbeat IPC: 0.69994 cumulative IPC: 0.61750 (Simulation time: 0 hr 11 min 11 sec) 
Heartbeat CPU  0 instructions:  224000000 cycles:  279767816 heartbeat IPC: 0.67575 cumulative IPC: 0.61793 (Simulation time: 0 hr 11 min 14 sec) 
Heartbeat CPU  0 instructions:  225000001 cycles:  281211931 heartbeat IPC: 0.69247 cumulative IPC: 0.61846 (Simulation time: 0 hr 11 min 17 sec) 
Heartbeat CPU  0 instructions:  226000002 cycles:  282653570 heartbeat IPC: 0.69366 cumulative IPC: 0.61899 (Simulation time: 0 hr 11 min 20 sec) 
Heartbeat CPU  0 instructions:  227000003 cycles:  284101583 heartbeat IPC: 0.69060 cumulative IPC: 0.61950 (Simulation time: 0 hr 11 min 23 sec) 
Heartbeat CPU  0 instructions:  228000000 cycles:  285548111 heartbeat IPC: 0.69131 cumulative IPC: 0.62000 (Simulation time: 0 hr 11 min 27 sec) 
Heartbeat CPU  0 instructions:  229000000 cycles:  286977526 heartbeat IPC: 0.69959 cumulative IPC: 0.62055 (Simulation time: 0 hr 11 min 30 sec) 
Heartbeat CPU  0 instructions:  230000003 cycles:  288429647 heartbeat IPC: 0.68865 cumulative IPC: 0.62102 (Simulation time: 0 hr 11 min 33 sec) 
Heartbeat CPU  0 instructions:  231000000 cycles:  289856400 heartbeat IPC: 0.70089 cumulative IPC: 0.62156 (Simulation time: 0 hr 11 min 36 sec) 
Heartbeat CPU  0 instructions:  232000000 cycles:  291292811 heartbeat IPC: 0.69618 cumulative IPC: 0.62207 (Simulation time: 0 hr 11 min 39 sec) 
Heartbeat CPU  0 instructions:  233000003 cycles:  292748611 heartbeat IPC: 0.68691 cumulative IPC: 0.62251 (Simulation time: 0 hr 11 min 43 sec) 
Heartbeat CPU  0 instructions:  234000002 cycles:  294170607 heartbeat IPC: 0.70324 cumulative IPC: 0.62304 (Simulation time: 0 hr 11 min 46 sec) 
Heartbeat CPU  0 instructions:  235000001 cycles:  295619921 heartbeat IPC: 0.68998 cumulative IPC: 0.62349 (Simulation time: 0 hr 11 min 49 sec) 
Heartbeat CPU  0 instructions:  236000000 cycles:  297084962 heartbeat IPC: 0.68257 cumulative IPC: 0.62389 (Simulation time: 0 hr 11 min 52 sec) 
Heartbeat CPU  0 instructions:  237000002 cycles:  298513640 heartbeat IPC: 0.69995 cumulative IPC: 0.62438 (Simulation time: 0 hr 11 min 56 sec) 
Heartbeat CPU  0 instructions:  238000000 cycles:  299990396 heartbeat IPC: 0.67716 cumulative IPC: 0.62474 (Simulation time: 0 hr 11 min 59 sec) 
Heartbeat CPU  0 instructions:  239000000 cycles:  301469073 heartbeat IPC: 0.67628 cumulative IPC: 0.62508 (Simulation time: 0 hr 12 min 2 sec) 
Heartbeat CPU  0 instructions:  240000000 cycles:  302887115 heartbeat IPC: 0.70520 cumulative IPC: 0.62559 (Simulation time: 0 hr 12 min 5 sec) 
Heartbeat CPU  0 instructions:  241000002 cycles:  304343889 heartbeat IPC: 0.68645 cumulative IPC: 0.62598 (Simulation time: 0 hr 12 min 8 sec) 
Heartbeat CPU  0 instructions:  242000000 cycles:  305795337 heartbeat IPC: 0.68897 cumulative IPC: 0.62638 (Simulation time: 0 hr 12 min 12 sec) 
Heartbeat CPU  0 instructions:  243000003 cycles:  307214897 heartbeat IPC: 0.70445 cumulative IPC: 0.62687 (Simulation time: 0 hr 12 min 15 sec) 
Heartbeat CPU  0 instructions:  244000000 cycles:  308657724 heartbeat IPC: 0.69308 cumulative IPC: 0.62729 (Simulation time: 0 hr 12 min 18 sec) 
Heartbeat CPU  0 instructions:  245000002 cycles:  310084428 heartbeat IPC: 0.70092 cumulative IPC: 0.62774 (Simulation time: 0 hr 12 min 21 sec) 
Heartbeat CPU  0 instructions:  246000003 cycles:  311515676 heartbeat IPC: 0.69869 cumulative IPC: 0.62818 (Simulation time: 0 hr 12 min 24 sec) 
Heartbeat CPU  0 instructions:  247000002 cycles:  312968855 heartbeat IPC: 0.68815 cumulative IPC: 0.62855 (Simulation time: 0 hr 12 min 28 sec) 
Heartbeat CPU  0 instructions:  248000000 cycles:  314389999 heartbeat IPC: 0.70366 cumulative IPC: 0.62900 (Simulation time: 0 hr 12 min 31 sec) 
Heartbeat CPU  0 instructions:  249000002 cycles:  315859740 heartbeat IPC: 0.68039 cumulative IPC: 0.62932 (Simulation time: 0 hr 12 min 34 sec) 
Heartbeat CPU  0 instructions:  250000003 cycles:  317315691 heartbeat IPC: 0.68684 cumulative IPC: 0.62967 (Simulation time: 0 hr 12 min 37 sec) 
Heartbeat CPU  0 instructions:  251000001 cycles:  318757232 heartbeat IPC: 0.69370 cumulative IPC: 0.63006 (Simulation time: 0 hr 12 min 41 sec) 
Heartbeat CPU  0 instructions:  252000000 cycles:  320204124 heartbeat IPC: 0.69114 cumulative IPC: 0.63043 (Simulation time: 0 hr 12 min 44 sec) 
Heartbeat CPU  0 instructions:  253000000 cycles:  321685919 heartbeat IPC: 0.67486 cumulative IPC: 0.63070 (Simulation time: 0 hr 12 min 47 sec) 
Heartbeat CPU  0 instructions:  254000003 cycles:  323101542 heartbeat IPC: 0.70640 cumulative IPC: 0.63114 (Simulation time: 0 hr 12 min 50 sec) 
Heartbeat CPU  0 instructions:  255000000 cycles:  324539693 heartbeat IPC: 0.69534 cumulative IPC: 0.63151 (Simulation time: 0 hr 12 min 53 sec) 
Heartbeat CPU  0 instructions:  256000000 cycles:  325998533 heartbeat IPC: 0.68548 cumulative IPC: 0.63183 (Simulation time: 0 hr 12 min 57 sec) 
Heartbeat CPU  0 instructions:  257000003 cycles:  327426610 heartbeat IPC: 0.70024 cumulative IPC: 0.63223 (Simulation time: 0 hr 13 min 0 sec) 
Heartbeat CPU  0 instructions:  258000000 cycles:  328866623 heartbeat IPC: 0.69444 cumulative IPC: 0.63258 (Simulation time: 0 hr 13 min 3 sec) 
Heartbeat CPU  0 instructions:  259000002 cycles:  330297313 heartbeat IPC: 0.69896 cumulative IPC: 0.63296 (Simulation time: 0 hr 13 min 6 sec) 
Heartbeat CPU  0 instructions:  260000000 cycles:  331726841 heartbeat IPC: 0.69953 cumulative IPC: 0.63334 (Simulation time: 0 hr 13 min 9 sec) 
Heartbeat CPU  0 instructions:  261000000 cycles:  333180427 heartbeat IPC: 0.68795 cumulative IPC: 0.63365 (Simulation time: 0 hr 13 min 13 sec) 
Heartbeat CPU  0 instructions:  262000001 cycles:  334616857 heartbeat IPC: 0.69617 cumulative IPC: 0.63400 (Simulation time: 0 hr 13 min 16 sec) 
Heartbeat CPU  0 instructions:  263000002 cycles:  336078457 heartbeat IPC: 0.68418 cumulative IPC: 0.63429 (Simulation time: 0 hr 13 min 19 sec) 
Heartbeat CPU  0 instructions:  264000000 cycles:  337545792 heartbeat IPC: 0.68151 cumulative IPC: 0.63456 (Simulation time: 0 hr 13 min 22 sec) 
Heartbeat CPU  0 instructions:  265000003 cycles:  338998046 heartbeat IPC: 0.68859 cumulative IPC: 0.63486 (Simulation time: 0 hr 13 min 26 sec) 
Heartbeat CPU  0 instructions:  266000002 cycles:  340441340 heartbeat IPC: 0.69286 cumulative IPC: 0.63518 (Simulation time: 0 hr 13 min 29 sec) 
Heartbeat CPU  0 instructions:  267000003 cycles:  341926608 heartbeat IPC: 0.67328 cumulative IPC: 0.63539 (Simulation time: 0 hr 13 min 32 sec) 
Heartbeat CPU  0 instructions:  268000000 cycles:  343347876 heartbeat IPC: 0.70359 cumulative IPC: 0.63576 (Simulation time: 0 hr 13 min 35 sec) 
Heartbeat CPU  0 instructions:  269000002 cycles:  344784453 heartbeat IPC: 0.69610 cumulative IPC: 0.63609 (Simulation time: 0 hr 13 min 39 sec) 
Heartbeat CPU  0 instructions:  270000001 cycles:  346243310 heartbeat IPC: 0.68547 cumulative IPC: 0.63636 (Simulation time: 0 hr 13 min 42 sec) 
Heartbeat CPU  0 instructions:  271000000 cycles:  347657203 heartbeat IPC: 0.70727 cumulative IPC: 0.63673 (Simulation time: 0 hr 13 min 45 sec) 
Heartbeat CPU  0 instructions:  272000000 cycles:  349100611 heartbeat IPC: 0.69280 cumulative IPC: 0.63703 (Simulation time: 0 hr 13 min 48 sec) 
Heartbeat CPU  0 instructions:  273000001 cycles:  350554923 heartbeat IPC: 0.68761 cumulative IPC: 0.63730 (Simulation time: 0 hr 13 min 51 sec) 
Heartbeat CPU  0 instructions:  274000000 cycles:  351991204 heartbeat IPC: 0.69624 cumulative IPC: 0.63761 (Simulation time: 0 hr 13 min 55 sec) 
Heartbeat CPU  0 instructions:  275000002 cycles:  353446731 heartbeat IPC: 0.68704 cumulative IPC: 0.63787 (Simulation time: 0 hr 13 min 58 sec) 
Heartbeat CPU  0 instructions:  276000000 cycles:  354889713 heartbeat IPC: 0.69301 cumulative IPC: 0.63816 (Simulation time: 0 hr 14 min 1 sec) 
Heartbeat CPU  0 instructions:  277000001 cycles:  356342146 heartbeat IPC: 0.68850 cumulative IPC: 0.63842 (Simulation time: 0 hr 14 min 4 sec) 
Heartbeat CPU  0 instructions:  278000003 cycles:  357800282 heartbeat IPC: 0.68581 cumulative IPC: 0.63867 (Simulation time: 0 hr 14 min 8 sec) 
Heartbeat CPU  0 instructions:  279000002 cycles:  359230555 heartbeat IPC: 0.69917 cumulative IPC: 0.63898 (Simulation time: 0 hr 14 min 11 sec) 
Heartbeat CPU  0 instructions:  280000000 cycles:  360658950 heartbeat IPC: 0.70009 cumulative IPC: 0.63929 (Simulation time: 0 hr 14 min 14 sec) 
Heartbeat CPU  0 instructions:  281000001 cycles:  362128386 heartbeat IPC: 0.68053 cumulative IPC: 0.63951 (Simulation time: 0 hr 14 min 17 sec) 
Heartbeat CPU  0 instructions:  282000002 cycles:  363558878 heartbeat IPC: 0.69906 cumulative IPC: 0.63981 (Simulation time: 0 hr 14 min 21 sec) 
Heartbeat CPU  0 instructions:  283000001 cycles:  364998435 heartbeat IPC: 0.69466 cumulative IPC: 0.64008 (Simulation time: 0 hr 14 min 24 sec) 
Heartbeat CPU  0 instructions:  284000000 cycles:  366459050 heartbeat IPC: 0.68464 cumulative IPC: 0.64031 (Simulation time: 0 hr 14 min 27 sec) 
Heartbeat CPU  0 instructions:  285000001 cycles:  367882135 heartbeat IPC: 0.70270 cumulative IPC: 0.64062 (Simulation time: 0 hr 14 min 30 sec) 
Heartbeat CPU  0 instructions:  286000002 cycles:  369324344 heartbeat IPC: 0.69338 cumulative IPC: 0.64088 (Simulation time: 0 hr 14 min 33 sec) 
Heartbeat CPU  0 instructions:  287000000 cycles:  370770044 heartbeat IPC: 0.69171 cumulative IPC: 0.64113 (Simulation time: 0 hr 14 min 37 sec) 
Heartbeat CPU  0 instructions:  288000000 cycles:  372209867 heartbeat IPC: 0.69453 cumulative IPC: 0.64139 (Simulation time: 0 hr 14 min 40 sec) 
Heartbeat CPU  0 instructions:  289000003 cycles:  373643530 heartbeat IPC: 0.69752 cumulative IPC: 0.64167 (Simulation time: 0 hr 14 min 43 sec) 
Heartbeat CPU  0 instructions:  290000000 cycles:  375097906 heartbeat IPC: 0.68758 cumulative IPC: 0.64189 (Simulation time: 0 hr 14 min 46 sec) 
Heartbeat CPU  0 instructions:  291000000 cycles:  376522647 heartbeat IPC: 0.70188 cumulative IPC: 0.64218 (Simulation time: 0 hr 14 min 50 sec) 
Heartbeat CPU  0 instructions:  292000000 cycles:  378005103 heartbeat IPC: 0.67456 cumulative IPC: 0.64234 (Simulation time: 0 hr 14 min 53 sec) 
Heartbeat CPU  0 instructions:  293000003 cycles:  379459474 heartbeat IPC: 0.68758 cumulative IPC: 0.64256 (Simulation time: 0 hr 14 min 56 sec) 
Heartbeat CPU  0 instructions:  294000000 cycles:  380882206 heartbeat IPC: 0.70287 cumulative IPC: 0.64284 (Simulation time: 0 hr 14 min 59 sec) 
Heartbeat CPU  0 instructions:  295000001 cycles:  382351969 heartbeat IPC: 0.68038 cumulative IPC: 0.64302 (Simulation time: 0 hr 15 min 2 sec) 
Heartbeat CPU  0 instructions:  296000000 cycles:  383785214 heartbeat IPC: 0.69772 cumulative IPC: 0.64328 (Simulation time: 0 hr 15 min 6 sec) 
Heartbeat CPU  0 instructions:  297000003 cycles:  385214649 heartbeat IPC: 0.69958 cumulative IPC: 0.64354 (Simulation time: 0 hr 15 min 9 sec) 
Heartbeat CPU  0 instructions:  298000000 cycles:  386669757 heartbeat IPC: 0.68723 cumulative IPC: 0.64375 (Simulation time: 0 hr 15 min 12 sec) 
Heartbeat CPU  0 instructions:  299000001 cycles:  388114321 heartbeat IPC: 0.69225 cumulative IPC: 0.64398 (Simulation time: 0 hr 15 min 15 sec) 
Heartbeat CPU  0 instructions:  300000000 cycles:  389557751 heartbeat IPC: 0.69279 cumulative IPC: 0.64420 (Simulation time: 0 hr 15 min 19 sec) 
Heartbeat CPU  0 instructions:  301000002 cycles:  391023339 heartbeat IPC: 0.68232 cumulative IPC: 0.64438 (Simulation time: 0 hr 15 min 22 sec) 
Heartbeat CPU  0 instructions:  302000001 cycles:  392480950 heartbeat IPC: 0.68605 cumulative IPC: 0.64458 (Simulation time: 0 hr 15 min 25 sec) 
Heartbeat CPU  0 instructions:  303000002 cycles:  393922383 heartbeat IPC: 0.69375 cumulative IPC: 0.64480 (Simulation time: 0 hr 15 min 28 sec) 
Heartbeat CPU  0 instructions:  304000000 cycles:  395385320 heartbeat IPC: 0.68356 cumulative IPC: 0.64498 (Simulation time: 0 hr 15 min 31 sec) 
Heartbeat CPU  0 instructions:  305000001 cycles:  396802384 heartbeat IPC: 0.70569 cumulative IPC: 0.64525 (Simulation time: 0 hr 15 min 35 sec) 
Heartbeat CPU  0 instructions:  306000000 cycles:  398252407 heartbeat IPC: 0.68964 cumulative IPC: 0.64545 (Simulation time: 0 hr 15 min 38 sec) 
Heartbeat CPU  0 instructions:  307000000 cycles:  399660514 heartbeat IPC: 0.71017 cumulative IPC: 0.64574 (Simulation time: 0 hr 15 min 41 sec) 
Heartbeat CPU  0 instructions:  308000000 cycles:  400834286 heartbeat IPC: 0.85195 cumulative IPC: 0.64649 (Simulation time: 0 hr 15 min 44 sec) 
Heartbeat CPU  0 instructions:  309000002 cycles:  401970532 heartbeat IPC: 0.88009 cumulative IPC: 0.64731 (Simulation time: 0 hr 15 min 47 sec) 
Heartbeat CPU  0 instructions:  310000000 cycles:  403083640 heartbeat IPC: 0.89838 cumulative IPC: 0.64818 (Simulation time: 0 hr 15 min 50 sec) 
Heartbeat CPU  0 instructions:  311000002 cycles:  404463031 heartbeat IPC: 0.72496 cumulative IPC: 0.64850 (Simulation time: 0 hr 15 min 53 sec) 
Heartbeat CPU  0 instructions:  312000000 cycles:  405950286 heartbeat IPC: 0.67238 cumulative IPC: 0.64861 (Simulation time: 0 hr 15 min 56 sec) 
Heartbeat CPU  0 instructions:  313000003 cycles:  407356906 heartbeat IPC: 0.71093 cumulative IPC: 0.64888 (Simulation time: 0 hr 15 min 59 sec) 
Heartbeat CPU  0 instructions:  314000000 cycles:  408849980 heartbeat IPC: 0.66976 cumulative IPC: 0.64897 (Simulation time: 0 hr 16 min 2 sec) 
Heartbeat CPU  0 instructions:  315000003 cycles:  410284878 heartbeat IPC: 0.69692 cumulative IPC: 0.64918 (Simulation time: 0 hr 16 min 6 sec) 
Heartbeat CPU  0 instructions:  316000000 cycles:  411732367 heartbeat IPC: 0.69085 cumulative IPC: 0.64936 (Simulation time: 0 hr 16 min 9 sec) 
Heartbeat CPU  0 instructions:  317000001 cycles:  413189390 heartbeat IPC: 0.68633 cumulative IPC: 0.64952 (Simulation time: 0 hr 16 min 12 sec) 
Heartbeat CPU  0 instructions:  318000000 cycles:  414635712 heartbeat IPC: 0.69141 cumulative IPC: 0.64970 (Simulation time: 0 hr 16 min 15 sec) 
Heartbeat CPU  0 instructions:  319000000 cycles:  416093652 heartbeat IPC: 0.68590 cumulative IPC: 0.64986 (Simulation time: 0 hr 16 min 18 sec) 
Heartbeat CPU  0 instructions:  320000000 cycles:  417534907 heartbeat IPC: 0.69384 cumulative IPC: 0.65005 (Simulation time: 0 hr 16 min 22 sec) 
Heartbeat CPU  0 instructions:  321000000 cycles:  418976717 heartbeat IPC: 0.69357 cumulative IPC: 0.65023 (Simulation time: 0 hr 16 min 25 sec) 
Heartbeat CPU  0 instructions:  322000003 cycles:  420428313 heartbeat IPC: 0.68890 cumulative IPC: 0.65040 (Simulation time: 0 hr 16 min 28 sec) 
Heartbeat CPU  0 instructions:  323000003 cycles:  421844815 heartbeat IPC: 0.70596 cumulative IPC: 0.65062 (Simulation time: 0 hr 16 min 31 sec) 
Heartbeat CPU  0 instructions:  324000000 cycles:  423322930 heartbeat IPC: 0.67654 cumulative IPC: 0.65074 (Simulation time: 0 hr 16 min 35 sec) 
Heartbeat CPU  0 instructions:  325000003 cycles:  424750178 heartbeat IPC: 0.70065 cumulative IPC: 0.65094 (Simulation time: 0 hr 16 min 38 sec) 
Heartbeat CPU  0 instructions:  326000000 cycles:  426216594 heartbeat IPC: 0.68193 cumulative IPC: 0.65107 (Simulation time: 0 hr 16 min 41 sec) 
Heartbeat CPU  0 instructions:  327000001 cycles:  427691968 heartbeat IPC: 0.67779 cumulative IPC: 0.65119 (Simulation time: 0 hr 16 min 44 sec) 
Heartbeat CPU  0 instructions:  328000000 cycles:  429114890 heartbeat IPC: 0.70278 cumulative IPC: 0.65140 (Simulation time: 0 hr 16 min 47 sec) 
Heartbeat CPU  0 instructions:  329000002 cycles:  430574627 heartbeat IPC: 0.68506 cumulative IPC: 0.65154 (Simulation time: 0 hr 16 min 51 sec) 
Heartbeat CPU  0 instructions:  330000003 cycles:  432008952 heartbeat IPC: 0.69719 cumulative IPC: 0.65172 (Simulation time: 0 hr 16 min 54 sec) 
Heartbeat CPU  0 instructions:  331000003 cycles:  433448661 heartbeat IPC: 0.69458 cumulative IPC: 0.65190 (Simulation time: 0 hr 16 min 57 sec) 
Heartbeat CPU  0 instructions:  332000000 cycles:  434893111 heartbeat IPC: 0.69230 cumulative IPC: 0.65206 (Simulation time: 0 hr 17 min 0 sec) 
Heartbeat CPU  0 instructions:  333000003 cycles:  436326519 heartbeat IPC: 0.69764 cumulative IPC: 0.65224 (Simulation time: 0 hr 17 min 4 sec) 
Heartbeat CPU  0 instructions:  334000000 cycles:  437780306 heartbeat IPC: 0.68786 cumulative IPC: 0.65239 (Simulation time: 0 hr 17 min 7 sec) 
Heartbeat CPU  0 instructions:  335000002 cycles:  439217403 heartbeat IPC: 0.69585 cumulative IPC: 0.65256 (Simulation time: 0 hr 17 min 10 sec) 
Heartbeat CPU  0 instructions:  336000000 cycles:  440682158 heartbeat IPC: 0.68271 cumulative IPC: 0.65268 (Simulation time: 0 hr 17 min 13 sec) 
Heartbeat CPU  0 instructions:  337000000 cycles:  442122456 heartbeat IPC: 0.69430 cumulative IPC: 0.65285 (Simulation time: 0 hr 17 min 17 sec) 
Heartbeat CPU  0 instructions:  338000002 cycles:  443553744 heartbeat IPC: 0.69867 cumulative IPC: 0.65303 (Simulation time: 0 hr 17 min 20 sec) 
Heartbeat CPU  0 instructions:  339000001 cycles:  445031712 heartbeat IPC: 0.67660 cumulative IPC: 0.65312 (Simulation time: 0 hr 17 min 23 sec) 
Heartbeat CPU  0 instructions:  340000000 cycles:  446455124 heartbeat IPC: 0.70254 cumulative IPC: 0.65331 (Simulation time: 0 hr 17 min 26 sec) 
Heartbeat CPU  0 instructions:  341000002 cycles:  447901839 heartbeat IPC: 0.69122 cumulative IPC: 0.65346 (Simulation time: 0 hr 17 min 29 sec) 
Heartbeat CPU  0 instructions:  342000003 cycles:  449351959 heartbeat IPC: 0.68960 cumulative IPC: 0.65360 (Simulation time: 0 hr 17 min 33 sec) 
Heartbeat CPU  0 instructions:  343000000 cycles:  450784685 heartbeat IPC: 0.69797 cumulative IPC: 0.65378 (Simulation time: 0 hr 17 min 36 sec) 
Heartbeat CPU  0 instructions:  344000000 cycles:  452240246 heartbeat IPC: 0.68702 cumulative IPC: 0.65390 (Simulation time: 0 hr 17 min 39 sec) 
Heartbeat CPU  0 instructions:  345000003 cycles:  453694753 heartbeat IPC: 0.68752 cumulative IPC: 0.65404 (Simulation time: 0 hr 17 min 42 sec) 
Heartbeat CPU  0 instructions:  346000000 cycles:  455135988 heartbeat IPC: 0.69385 cumulative IPC: 0.65419 (Simulation time: 0 hr 17 min 46 sec) 
Heartbeat CPU  0 instructions:  347000003 cycles:  456578679 heartbeat IPC: 0.69315 cumulative IPC: 0.65434 (Simulation time: 0 hr 17 min 49 sec) 
Heartbeat CPU  0 instructions:  348000000 cycles:  458005373 heartbeat IPC: 0.70092 cumulative IPC: 0.65451 (Simulation time: 0 hr 17 min 52 sec) 
Heartbeat CPU  0 instructions:  349000000 cycles:  459463240 heartbeat IPC: 0.68593 cumulative IPC: 0.65463 (Simulation time: 0 hr 17 min 55 sec) 
Heartbeat CPU  0 instructions:  350000003 cycles:  460887824 heartbeat IPC: 0.70196 cumulative IPC: 0.65481 (Simulation time: 0 hr 17 min 58 sec) 
Heartbeat CPU  0 instructions:  351000001 cycles:  462354215 heartbeat IPC: 0.68194 cumulative IPC: 0.65491 (Simulation time: 0 hr 18 min 2 sec) 
Heartbeat CPU  0 instructions:  352000000 cycles:  463805075 heartbeat IPC: 0.68925 cumulative IPC: 0.65504 (Simulation time: 0 hr 18 min 5 sec) 
Heartbeat CPU  0 instructions:  353000003 cycles:  465244078 heartbeat IPC: 0.69493 cumulative IPC: 0.65519 (Simulation time: 0 hr 18 min 8 sec) 
Heartbeat CPU  0 instructions:  354000000 cycles:  466708689 heartbeat IPC: 0.68277 cumulative IPC: 0.65530 (Simulation time: 0 hr 18 min 11 sec) 
Heartbeat CPU  0 instructions:  355000000 cycles:  468163047 heartbeat IPC: 0.68759 cumulative IPC: 0.65542 (Simulation time: 0 hr 18 min 15 sec) 
Heartbeat CPU  0 instructions:  356000000 cycles:  469601574 heartbeat IPC: 0.69516 cumulative IPC: 0.65556 (Simulation time: 0 hr 18 min 18 sec) 
Heartbeat CPU  0 instructions:  357000002 cycles:  471066487 heartbeat IPC: 0.68264 cumulative IPC: 0.65566 (Simulation time: 0 hr 18 min 21 sec) 
Heartbeat CPU  0 instructions:  358000003 cycles:  472502409 heartbeat IPC: 0.69642 cumulative IPC: 0.65581 (Simulation time: 0 hr 18 min 24 sec) 
Heartbeat CPU  0 instructions:  359000000 cycles:  473975977 heartbeat IPC: 0.67862 cumulative IPC: 0.65590 (Simulation time: 0 hr 18 min 28 sec) 
Heartbeat CPU  0 instructions:  360000000 cycles:  475429285 heartbeat IPC: 0.68809 cumulative IPC: 0.65602 (Simulation time: 0 hr 18 min 31 sec) 
Heartbeat CPU  0 instructions:  361000002 cycles:  476871718 heartbeat IPC: 0.69327 cumulative IPC: 0.65615 (Simulation time: 0 hr 18 min 34 sec) 
Heartbeat CPU  0 instructions:  362000003 cycles:  478311068 heartbeat IPC: 0.69476 cumulative IPC: 0.65629 (Simulation time: 0 hr 18 min 37 sec) 
Heartbeat CPU  0 instructions:  363000003 cycles:  479749765 heartbeat IPC: 0.69507 cumulative IPC: 0.65643 (Simulation time: 0 hr 18 min 40 sec) 
Heartbeat CPU  0 instructions:  364000000 cycles:  481211060 heartbeat IPC: 0.68432 cumulative IPC: 0.65653 (Simulation time: 0 hr 18 min 44 sec) 
Heartbeat CPU  0 instructions:  365000003 cycles:  482634787 heartbeat IPC: 0.70238 cumulative IPC: 0.65669 (Simulation time: 0 hr 18 min 47 sec) 
Heartbeat CPU  0 instructions:  366000000 cycles:  484092186 heartbeat IPC: 0.68615 cumulative IPC: 0.65680 (Simulation time: 0 hr 18 min 50 sec) 
Heartbeat CPU  0 instructions:  367000001 cycles:  485546466 heartbeat IPC: 0.68763 cumulative IPC: 0.65691 (Simulation time: 0 hr 18 min 53 sec) 
Heartbeat CPU  0 instructions:  368000000 cycles:  486972248 heartbeat IPC: 0.70137 cumulative IPC: 0.65706 (Simulation time: 0 hr 18 min 57 sec) 
Heartbeat CPU  0 instructions:  369000003 cycles:  488427808 heartbeat IPC: 0.68702 cumulative IPC: 0.65717 (Simulation time: 0 hr 19 min 0 sec) 
Heartbeat CPU  0 instructions:  370000000 cycles:  489875634 heartbeat IPC: 0.69069 cumulative IPC: 0.65729 (Simulation time: 0 hr 19 min 3 sec) 
Heartbeat CPU  0 instructions:  371000000 cycles:  491326565 heartbeat IPC: 0.68921 cumulative IPC: 0.65740 (Simulation time: 0 hr 19 min 6 sec) 
Heartbeat CPU  0 instructions:  372000000 cycles:  492799914 heartbeat IPC: 0.67873 cumulative IPC: 0.65748 (Simulation time: 0 hr 19 min 9 sec) 
Heartbeat CPU  0 instructions:  373000000 cycles:  494231404 heartbeat IPC: 0.69857 cumulative IPC: 0.65762 (Simulation time: 0 hr 19 min 13 sec) 
Heartbeat CPU  0 instructions:  374000003 cycles:  495706466 heartbeat IPC: 0.67794 cumulative IPC: 0.65769 (Simulation time: 0 hr 19 min 16 sec) 
Heartbeat CPU  0 instructions:  375000002 cycles:  497116228 heartbeat IPC: 0.70934 cumulative IPC: 0.65786 (Simulation time: 0 hr 19 min 19 sec) 
Heartbeat CPU  0 instructions:  376000000 cycles:  498585138 heartbeat IPC: 0.68078 cumulative IPC: 0.65795 (Simulation time: 0 hr 19 min 22 sec) 
Heartbeat CPU  0 instructions:  377000003 cycles:  500004912 heartbeat IPC: 0.70434 cumulative IPC: 0.65810 (Simulation time: 0 hr 19 min 26 sec) 
Heartbeat CPU  0 instructions:  378000000 cycles:  501450488 heartbeat IPC: 0.69176 cumulative IPC: 0.65822 (Simulation time: 0 hr 19 min 29 sec) 
Heartbeat CPU  0 instructions:  379000001 cycles:  502907328 heartbeat IPC: 0.68642 cumulative IPC: 0.65831 (Simulation time: 0 hr 19 min 32 sec) 
Heartbeat CPU  0 instructions:  380000000 cycles:  504319837 heartbeat IPC: 0.70796 cumulative IPC: 0.65848 (Simulation time: 0 hr 19 min 35 sec) 
Heartbeat CPU  0 instructions:  381000002 cycles:  505769576 heartbeat IPC: 0.68978 cumulative IPC: 0.65859 (Simulation time: 0 hr 19 min 38 sec) 
Heartbeat CPU  0 instructions:  382000003 cycles:  507230963 heartbeat IPC: 0.68428 cumulative IPC: 0.65867 (Simulation time: 0 hr 19 min 42 sec) 
Heartbeat CPU  0 instructions:  383000000 cycles:  508669608 heartbeat IPC: 0.69510 cumulative IPC: 0.65879 (Simulation time: 0 hr 19 min 45 sec) 
Heartbeat CPU  0 instructions:  384000000 cycles:  510139806 heartbeat IPC: 0.68018 cumulative IPC: 0.65887 (Simulation time: 0 hr 19 min 48 sec) 
Heartbeat CPU  0 instructions:  385000003 cycles:  511555968 heartbeat IPC: 0.70614 cumulative IPC: 0.65902 (Simulation time: 0 hr 19 min 51 sec) 
Heartbeat CPU  0 instructions:  386000000 cycles:  513025817 heartbeat IPC: 0.68034 cumulative IPC: 0.65909 (Simulation time: 0 hr 19 min 55 sec) 
Heartbeat CPU  0 instructions:  387000002 cycles:  514450127 heartbeat IPC: 0.70210 cumulative IPC: 0.65924 (Simulation time: 0 hr 19 min 58 sec) 
Heartbeat CPU  0 instructions:  388000000 cycles:  515926831 heartbeat IPC: 0.67718 cumulative IPC: 0.65930 (Simulation time: 0 hr 20 min 1 sec) 
Heartbeat CPU  0 instructions:  389000000 cycles:  517382956 heartbeat IPC: 0.68675 cumulative IPC: 0.65939 (Simulation time: 0 hr 20 min 4 sec) 
Heartbeat CPU  0 instructions:  390000000 cycles:  518805503 heartbeat IPC: 0.70296 cumulative IPC: 0.65953 (Simulation time: 0 hr 20 min 7 sec) 
Heartbeat CPU  0 instructions:  391000003 cycles:  520260187 heartbeat IPC: 0.68744 cumulative IPC: 0.65962 (Simulation time: 0 hr 20 min 11 sec) 
Heartbeat CPU  0 instructions:  392000000 cycles:  521681364 heartbeat IPC: 0.70364 cumulative IPC: 0.65976 (Simulation time: 0 hr 20 min 14 sec) 
Heartbeat CPU  0 instructions:  393000000 cycles:  523116366 heartbeat IPC: 0.69686 cumulative IPC: 0.65988 (Simulation time: 0 hr 20 min 17 sec) 
Heartbeat CPU  0 instructions:  394000000 cycles:  524588712 heartbeat IPC: 0.67919 cumulative IPC: 0.65995 (Simulation time: 0 hr 20 min 20 sec) 
Heartbeat CPU  0 instructions:  395000000 cycles:  525997335 heartbeat IPC: 0.70991 cumulative IPC: 0.66010 (Simulation time: 0 hr 20 min 24 sec) 
Heartbeat CPU  0 instructions:  396000000 cycles:  527471358 heartbeat IPC: 0.67842 cumulative IPC: 0.66016 (Simulation time: 0 hr 20 min 27 sec) 
Heartbeat CPU  0 instructions:  397000000 cycles:  528917342 heartbeat IPC: 0.69157 cumulative IPC: 0.66026 (Simulation time: 0 hr 20 min 30 sec) 
Heartbeat CPU  0 instructions:  398000001 cycles:  530367668 heartbeat IPC: 0.68950 cumulative IPC: 0.66036 (Simulation time: 0 hr 20 min 33 sec) 
Heartbeat CPU  0 instructions:  399000002 cycles:  531835017 heartbeat IPC: 0.68150 cumulative IPC: 0.66043 (Simulation time: 0 hr 20 min 36 sec) 
Heartbeat CPU  0 instructions:  400000000 cycles:  533266301 heartbeat IPC: 0.69867 cumulative IPC: 0.66055 (Simulation time: 0 hr 20 min 40 sec) 
Heartbeat CPU  0 instructions:  401000002 cycles:  534743247 heartbeat IPC: 0.67707 cumulative IPC: 0.66060 (Simulation time: 0 hr 20 min 43 sec) 
Heartbeat CPU  0 instructions:  402000003 cycles:  536170997 heartbeat IPC: 0.70040 cumulative IPC: 0.66072 (Simulation time: 0 hr 20 min 46 sec) 
Heartbeat CPU  0 instructions:  403000000 cycles:  537639285 heartbeat IPC: 0.68106 cumulative IPC: 0.66079 (Simulation time: 0 hr 20 min 49 sec) 
Heartbeat CPU  0 instructions:  404000000 cycles:  539096682 heartbeat IPC: 0.68615 cumulative IPC: 0.66087 (Simulation time: 0 hr 20 min 53 sec) 
Heartbeat CPU  0 instructions:  405000003 cycles:  540528668 heartbeat IPC: 0.69833 cumulative IPC: 0.66099 (Simulation time: 0 hr 20 min 56 sec) 
Heartbeat CPU  0 instructions:  406000000 cycles:  541983759 heartbeat IPC: 0.68724 cumulative IPC: 0.66107 (Simulation time: 0 hr 20 min 59 sec) 
Heartbeat CPU  0 instructions:  407000001 cycles:  543416880 heartbeat IPC: 0.69778 cumulative IPC: 0.66118 (Simulation time: 0 hr 21 min 2 sec) 
Heartbeat CPU  0 instructions:  408000000 cycles:  544858804 heartbeat IPC: 0.69352 cumulative IPC: 0.66128 (Simulation time: 0 hr 21 min 5 sec) 
Heartbeat CPU  0 instructions:  409000002 cycles:  546336318 heartbeat IPC: 0.67681 cumulative IPC: 0.66133 (Simulation time: 0 hr 21 min 9 sec) 
Heartbeat CPU  0 instructions:  410000000 cycles:  547763016 heartbeat IPC: 0.70092 cumulative IPC: 0.66145 (Simulation time: 0 hr 21 min 12 sec) 
Heartbeat CPU  0 instructions:  411000001 cycles:  549231565 heartbeat IPC: 0.68094 cumulative IPC: 0.66151 (Simulation time: 0 hr 21 min 15 sec) 
Heartbeat CPU  0 instructions:  412000000 cycles:  550663280 heartbeat IPC: 0.69846 cumulative IPC: 0.66163 (Simulation time: 0 hr 21 min 18 sec) 
Heartbeat CPU  0 instructions:  413000002 cycles:  552143264 heartbeat IPC: 0.67568 cumulative IPC: 0.66167 (Simulation time: 0 hr 21 min 22 sec) 
Heartbeat CPU  0 instructions:  414000001 cycles:  553590793 heartbeat IPC: 0.69083 cumulative IPC: 0.66176 (Simulation time: 0 hr 21 min 25 sec) 
Heartbeat CPU  0 instructions:  415000002 cycles:  555048287 heartbeat IPC: 0.68611 cumulative IPC: 0.66183 (Simulation time: 0 hr 21 min 28 sec) 
Heartbeat CPU  0 instructions:  416000000 cycles:  556507000 heartbeat IPC: 0.68553 cumulative IPC: 0.66191 (Simulation time: 0 hr 21 min 31 sec) 
Heartbeat CPU  0 instructions:  417000003 cycles:  557931920 heartbeat IPC: 0.70180 cumulative IPC: 0.66202 (Simulation time: 0 hr 21 min 34 sec) 
Heartbeat CPU  0 instructions:  418000000 cycles:  559380875 heartbeat IPC: 0.69015 cumulative IPC: 0.66211 (Simulation time: 0 hr 21 min 38 sec) 
Heartbeat CPU  0 instructions:  419000001 cycles:  560829717 heartbeat IPC: 0.69021 cumulative IPC: 0.66219 (Simulation time: 0 hr 21 min 41 sec) 
Heartbeat CPU  0 instructions:  420000000 cycles:  562250330 heartbeat IPC: 0.70392 cumulative IPC: 0.66232 (Simulation time: 0 hr 21 min 44 sec) 
Heartbeat CPU  0 instructions:  421000000 cycles:  563713466 heartbeat IPC: 0.68346 cumulative IPC: 0.66238 (Simulation time: 0 hr 21 min 47 sec) 
Heartbeat CPU  0 instructions:  422000001 cycles:  565136277 heartbeat IPC: 0.70283 cumulative IPC: 0.66250 (Simulation time: 0 hr 21 min 51 sec) 
Heartbeat CPU  0 instructions:  423000003 cycles:  566574214 heartbeat IPC: 0.69544 cumulative IPC: 0.66260 (Simulation time: 0 hr 21 min 54 sec) 
Heartbeat CPU  0 instructions:  424000000 cycles:  568016943 heartbeat IPC: 0.69313 cumulative IPC: 0.66269 (Simulation time: 0 hr 21 min 57 sec) 
Heartbeat CPU  0 instructions:  425000001 cycles:  569471031 heartbeat IPC: 0.68772 cumulative IPC: 0.66276 (Simulation time: 0 hr 22 min 0 sec) 
Heartbeat CPU  0 instructions:  426000002 cycles:  570927153 heartbeat IPC: 0.68676 cumulative IPC: 0.66283 (Simulation time: 0 hr 22 min 3 sec) 
Heartbeat CPU  0 instructions:  427000000 cycles:  572365859 heartbeat IPC: 0.69507 cumulative IPC: 0.66292 (Simulation time: 0 hr 22 min 7 sec) 
Heartbeat CPU  0 instructions:  428000000 cycles:  573825220 heartbeat IPC: 0.68523 cumulative IPC: 0.66299 (Simulation time: 0 hr 22 min 10 sec) 
Heartbeat CPU  0 instructions:  429000000 cycles:  575263326 heartbeat IPC: 0.69536 cumulative IPC: 0.66308 (Simulation time: 0 hr 22 min 13 sec) 
Heartbeat CPU  0 instructions:  430000000 cycles:  576703804 heartbeat IPC: 0.69421 cumulative IPC: 0.66317 (Simulation time: 0 hr 22 min 16 sec) 
Heartbeat CPU  0 instructions:  431000002 cycles:  578156615 heartbeat IPC: 0.68832 cumulative IPC: 0.66325 (Simulation time: 0 hr 22 min 20 sec) 
Heartbeat CPU  0 instructions:  432000000 cycles:  579597281 heartbeat IPC: 0.69412 cumulative IPC: 0.66334 (Simulation time: 0 hr 22 min 23 sec) 
Heartbeat CPU  0 instructions:  433000001 cycles:  581047192 heartbeat IPC: 0.68970 cumulative IPC: 0.66341 (Simulation time: 0 hr 22 min 26 sec) 
Heartbeat CPU  0 instructions:  434000000 cycles:  582503857 heartbeat IPC: 0.68650 cumulative IPC: 0.66348 (Simulation time: 0 hr 22 min 29 sec) 
Heartbeat CPU  0 instructions:  435000003 cycles:  583941872 heartbeat IPC: 0.69541 cumulative IPC: 0.66357 (Simulation time: 0 hr 22 min 33 sec) 
Heartbeat CPU  0 instructions:  436000000 cycles:  585400817 heartbeat IPC: 0.68542 cumulative IPC: 0.66363 (Simulation time: 0 hr 22 min 36 sec) 
Heartbeat CPU  0 instructions:  437000002 cycles:  586842220 heartbeat IPC: 0.69377 cumulative IPC: 0.66372 (Simulation time: 0 hr 22 min 39 sec) 
Heartbeat CPU  0 instructions:  438000001 cycles:  588291086 heartbeat IPC: 0.69019 cumulative IPC: 0.66379 (Simulation time: 0 hr 22 min 42 sec) 
Heartbeat CPU  0 instructions:  439000000 cycles:  589730348 heartbeat IPC: 0.69480 cumulative IPC: 0.66388 (Simulation time: 0 hr 22 min 45 sec) 
Heartbeat CPU  0 instructions:  440000000 cycles:  591182567 heartbeat IPC: 0.68860 cumulative IPC: 0.66395 (Simulation time: 0 hr 22 min 49 sec) 
Heartbeat CPU  0 instructions:  441000001 cycles:  592647841 heartbeat IPC: 0.68247 cumulative IPC: 0.66400 (Simulation time: 0 hr 22 min 52 sec) 
Heartbeat CPU  0 instructions:  442000000 cycles:  594068769 heartbeat IPC: 0.70376 cumulative IPC: 0.66411 (Simulation time: 0 hr 22 min 55 sec) 
Heartbeat CPU  0 instructions:  443000000 cycles:  595506285 heartbeat IPC: 0.69564 cumulative IPC: 0.66420 (Simulation time: 0 hr 22 min 58 sec) 
Heartbeat CPU  0 instructions:  444000000 cycles:  596981728 heartbeat IPC: 0.67776 cumulative IPC: 0.66424 (Simulation time: 0 hr 23 min 2 sec) 
Heartbeat CPU  0 instructions:  445000002 cycles:  598432618 heartbeat IPC: 0.68923 cumulative IPC: 0.66431 (Simulation time: 0 hr 23 min 5 sec) 
Heartbeat CPU  0 instructions:  446000001 cycles:  599884486 heartbeat IPC: 0.68877 cumulative IPC: 0.66438 (Simulation time: 0 hr 23 min 8 sec) 
Heartbeat CPU  0 instructions:  447000003 cycles:  601317426 heartbeat IPC: 0.69787 cumulative IPC: 0.66447 (Simulation time: 0 hr 23 min 11 sec) 
Heartbeat CPU  0 instructions:  448000000 cycles:  602804346 heartbeat IPC: 0.67253 cumulative IPC: 0.66449 (Simulation time: 0 hr 23 min 15 sec) 
Heartbeat CPU  0 instructions:  449000000 cycles:  604253050 heartbeat IPC: 0.69027 cumulative IPC: 0.66456 (Simulation time: 0 hr 23 min 18 sec) 
Heartbeat CPU  0 instructions:  450000003 cycles:  605678512 heartbeat IPC: 0.70153 cumulative IPC: 0.66466 (Simulation time: 0 hr 23 min 21 sec) 
Heartbeat CPU  0 instructions:  451000000 cycles:  607139464 heartbeat IPC: 0.68448 cumulative IPC: 0.66472 (Simulation time: 0 hr 23 min 24 sec) 
Heartbeat CPU  0 instructions:  452000000 cycles:  608604008 heartbeat IPC: 0.68281 cumulative IPC: 0.66477 (Simulation time: 0 hr 23 min 28 sec) 
Heartbeat CPU  0 instructions:  453000001 cycles:  610046548 heartbeat IPC: 0.69322 cumulative IPC: 0.66485 (Simulation time: 0 hr 23 min 31 sec) 
Heartbeat CPU  0 instructions:  454000000 cycles:  611482057 heartbeat IPC: 0.69662 cumulative IPC: 0.66493 (Simulation time: 0 hr 23 min 34 sec) 
Heartbeat CPU  0 instructions:  455000000 cycles:  612916660 heartbeat IPC: 0.69706 cumulative IPC: 0.66502 (Simulation time: 0 hr 23 min 37 sec) 
Heartbeat CPU  0 instructions:  456000000 cycles:  614373432 heartbeat IPC: 0.68645 cumulative IPC: 0.66508 (Simulation time: 0 hr 23 min 40 sec) 
Heartbeat CPU  0 instructions:  457000002 cycles:  615799338 heartbeat IPC: 0.70131 cumulative IPC: 0.66517 (Simulation time: 0 hr 23 min 44 sec) 
Heartbeat CPU  0 instructions:  458000003 cycles:  617256921 heartbeat IPC: 0.68607 cumulative IPC: 0.66523 (Simulation time: 0 hr 23 min 47 sec) 
Heartbeat CPU  0 instructions:  459000001 cycles:  618691501 heartbeat IPC: 0.69707 cumulative IPC: 0.66531 (Simulation time: 0 hr 23 min 50 sec) 
Heartbeat CPU  0 instructions:  460000000 cycles:  620133593 heartbeat IPC: 0.69344 cumulative IPC: 0.66539 (Simulation time: 0 hr 23 min 53 sec) 
Heartbeat CPU  0 instructions:  461000002 cycles:  621588348 heartbeat IPC: 0.68740 cumulative IPC: 0.66545 (Simulation time: 0 hr 23 min 57 sec) 
Heartbeat CPU  0 instructions:  462000003 cycles:  623018206 heartbeat IPC: 0.69937 cumulative IPC: 0.66554 (Simulation time: 0 hr 24 min 0 sec) 
Heartbeat CPU  0 instructions:  463000002 cycles:  624483922 heartbeat IPC: 0.68226 cumulative IPC: 0.66558 (Simulation time: 0 hr 24 min 3 sec) 
Heartbeat CPU  0 instructions:  464000000 cycles:  625909493 heartbeat IPC: 0.70147 cumulative IPC: 0.66568 (Simulation time: 0 hr 24 min 6 sec) 
Heartbeat CPU  0 instructions:  465000001 cycles:  627342463 heartbeat IPC: 0.69785 cumulative IPC: 0.66576 (Simulation time: 0 hr 24 min 10 sec) 
Heartbeat CPU  0 instructions:  466000000 cycles:  628837861 heartbeat IPC: 0.66872 cumulative IPC: 0.66577 (Simulation time: 0 hr 24 min 13 sec) 
Heartbeat CPU  0 instructions:  467000001 cycles:  630276009 heartbeat IPC: 0.69534 cumulative IPC: 0.66585 (Simulation time: 0 hr 24 min 16 sec) 
Heartbeat CPU  0 instructions:  468000000 cycles:  631723949 heartbeat IPC: 0.69064 cumulative IPC: 0.66591 (Simulation time: 0 hr 24 min 19 sec) 
Heartbeat CPU  0 instructions:  469000002 cycles:  633153112 heartbeat IPC: 0.69971 cumulative IPC: 0.66600 (Simulation time: 0 hr 24 min 23 sec) 
Heartbeat CPU  0 instructions:  470000003 cycles:  634623515 heartbeat IPC: 0.68009 cumulative IPC: 0.66604 (Simulation time: 0 hr 24 min 26 sec) 
Heartbeat CPU  0 instructions:  471000002 cycles:  636099991 heartbeat IPC: 0.67729 cumulative IPC: 0.66607 (Simulation time: 0 hr 24 min 29 sec) 
Heartbeat CPU  0 instructions:  472000000 cycles:  637514513 heartbeat IPC: 0.70695 cumulative IPC: 0.66617 (Simulation time: 0 hr 24 min 32 sec) 
Heartbeat CPU  0 instructions:  473000001 cycles:  638970373 heartbeat IPC: 0.68688 cumulative IPC: 0.66622 (Simulation time: 0 hr 24 min 36 sec) 
Heartbeat CPU  0 instructions:  474000000 cycles:  640441226 heartbeat IPC: 0.67988 cumulative IPC: 0.66626 (Simulation time: 0 hr 24 min 39 sec) 
Heartbeat CPU  0 instructions:  475000001 cycles:  641882303 heartbeat IPC: 0.69393 cumulative IPC: 0.66633 (Simulation time: 0 hr 24 min 42 sec) 
Heartbeat CPU  0 instructions:  476000000 cycles:  643331342 heartbeat IPC: 0.69011 cumulative IPC: 0.66639 (Simulation time: 0 hr 24 min 45 sec) 
Heartbeat CPU  0 instructions:  477000003 cycles:  644748586 heartbeat IPC: 0.70560 cumulative IPC: 0.66649 (Simulation time: 0 hr 24 min 49 sec) 
Heartbeat CPU  0 instructions:  478000002 cycles:  646250300 heartbeat IPC: 0.66591 cumulative IPC: 0.66649 (Simulation time: 0 hr 24 min 52 sec) 
Heartbeat CPU  0 instructions:  479000003 cycles:  647678898 heartbeat IPC: 0.69999 cumulative IPC: 0.66657 (Simulation time: 0 hr 24 min 55 sec) 
Heartbeat CPU  0 instructions:  480000000 cycles:  649116776 heartbeat IPC: 0.69547 cumulative IPC: 0.66664 (Simulation time: 0 hr 24 min 58 sec) 
Heartbeat CPU  0 instructions:  481000000 cycles:  650568912 heartbeat IPC: 0.68864 cumulative IPC: 0.66670 (Simulation time: 0 hr 25 min 2 sec) 
Heartbeat CPU  0 instructions:  482000003 cycles:  651986845 heartbeat IPC: 0.70525 cumulative IPC: 0.66680 (Simulation time: 0 hr 25 min 5 sec) 
Heartbeat CPU  0 instructions:  483000000 cycles:  653441940 heartbeat IPC: 0.68724 cumulative IPC: 0.66685 (Simulation time: 0 hr 25 min 8 sec) 
Heartbeat CPU  0 instructions:  484000000 cycles:  654885377 heartbeat IPC: 0.69279 cumulative IPC: 0.66691 (Simulation time: 0 hr 25 min 11 sec) 
Heartbeat CPU  0 instructions:  485000001 cycles:  656341946 heartbeat IPC: 0.68655 cumulative IPC: 0.66696 (Simulation time: 0 hr 25 min 15 sec) 
Heartbeat CPU  0 instructions:  486000000 cycles:  657796971 heartbeat IPC: 0.68727 cumulative IPC: 0.66701 (Simulation time: 0 hr 25 min 18 sec) 
Heartbeat CPU  0 instructions:  487000001 cycles:  659213361 heartbeat IPC: 0.70602 cumulative IPC: 0.66711 (Simulation time: 0 hr 25 min 21 sec) 
Heartbeat CPU  0 instructions:  488000000 cycles:  660688564 heartbeat IPC: 0.67787 cumulative IPC: 0.66714 (Simulation time: 0 hr 25 min 25 sec) 
Heartbeat CPU  0 instructions:  489000002 cycles:  662144351 heartbeat IPC: 0.68692 cumulative IPC: 0.66718 (Simulation time: 0 hr 25 min 28 sec) 
Heartbeat CPU  0 instructions:  490000001 cycles:  663587172 heartbeat IPC: 0.69309 cumulative IPC: 0.66725 (Simulation time: 0 hr 25 min 31 sec) 
Heartbeat CPU  0 instructions:  491000001 cycles:  665041175 heartbeat IPC: 0.68776 cumulative IPC: 0.66730 (Simulation time: 0 hr 25 min 34 sec) 
Heartbeat CPU  0 instructions:  492000000 cycles:  666486686 heartbeat IPC: 0.69180 cumulative IPC: 0.66736 (Simulation time: 0 hr 25 min 38 sec) 
Heartbeat CPU  0 instructions:  493000003 cycles:  667967585 heartbeat IPC: 0.67527 cumulative IPC: 0.66738 (Simulation time: 0 hr 25 min 41 sec) 
Heartbeat CPU  0 instructions:  494000001 cycles:  669396293 heartbeat IPC: 0.69993 cumulative IPC: 0.66746 (Simulation time: 0 hr 25 min 44 sec) 
Heartbeat CPU  0 instructions:  495000000 cycles:  670843335 heartbeat IPC: 0.69106 cumulative IPC: 0.66752 (Simulation time: 0 hr 25 min 47 sec) 
Heartbeat CPU  0 instructions:  496000000 cycles:  672337331 heartbeat IPC: 0.66935 cumulative IPC: 0.66752 (Simulation time: 0 hr 25 min 51 sec) 
Heartbeat CPU  0 instructions:  497000002 cycles:  673770022 heartbeat IPC: 0.69799 cumulative IPC: 0.66759 (Simulation time: 0 hr 25 min 54 sec) 
Heartbeat CPU  0 instructions:  498000000 cycles:  675220634 heartbeat IPC: 0.68936 cumulative IPC: 0.66765 (Simulation time: 0 hr 25 min 57 sec) 
Heartbeat CPU  0 instructions:  499000001 cycles:  676657246 heartbeat IPC: 0.69608 cumulative IPC: 0.66772 (Simulation time: 0 hr 26 min 0 sec) 
Heartbeat CPU  0 instructions:  500000000 cycles:  678140663 heartbeat IPC: 0.67412 cumulative IPC: 0.66773 (Simulation time: 0 hr 26 min 4 sec) 
Heartbeat CPU  0 instructions:  501000000 cycles:  679588161 heartbeat IPC: 0.69085 cumulative IPC: 0.66779 (Simulation time: 0 hr 26 min 7 sec) 
Heartbeat CPU  0 instructions:  502000003 cycles:  681008587 heartbeat IPC: 0.70402 cumulative IPC: 0.66787 (Simulation time: 0 hr 26 min 10 sec) 
Heartbeat CPU  0 instructions:  503000003 cycles:  682459241 heartbeat IPC: 0.68934 cumulative IPC: 0.66792 (Simulation time: 0 hr 26 min 13 sec) 
Heartbeat CPU  0 instructions:  504000000 cycles:  683932047 heartbeat IPC: 0.67897 cumulative IPC: 0.66795 (Simulation time: 0 hr 26 min 17 sec) 
Heartbeat CPU  0 instructions:  505000001 cycles:  685375936 heartbeat IPC: 0.69257 cumulative IPC: 0.66801 (Simulation time: 0 hr 26 min 20 sec) 
Heartbeat CPU  0 instructions:  506000001 cycles:  686817595 heartbeat IPC: 0.69365 cumulative IPC: 0.66807 (Simulation time: 0 hr 26 min 23 sec) 
Heartbeat CPU  0 instructions:  507000003 cycles:  688244976 heartbeat IPC: 0.70059 cumulative IPC: 0.66815 (Simulation time: 0 hr 26 min 26 sec) 
Heartbeat CPU  0 instructions:  508000000 cycles:  689693942 heartbeat IPC: 0.69015 cumulative IPC: 0.66820 (Simulation time: 0 hr 26 min 30 sec) 
Heartbeat CPU  0 instructions:  509000000 cycles:  691123110 heartbeat IPC: 0.69971 cumulative IPC: 0.66827 (Simulation time: 0 hr 26 min 33 sec) 
Heartbeat CPU  0 instructions:  510000002 cycles:  692589764 heartbeat IPC: 0.68183 cumulative IPC: 0.66830 (Simulation time: 0 hr 26 min 36 sec) 
Heartbeat CPU  0 instructions:  511000003 cycles:  694068545 heartbeat IPC: 0.67623 cumulative IPC: 0.66832 (Simulation time: 0 hr 26 min 39 sec) 
Heartbeat CPU  0 instructions:  512000000 cycles:  695501924 heartbeat IPC: 0.69765 cumulative IPC: 0.66839 (Simulation time: 0 hr 26 min 43 sec) 
[...]
scooby_state_449791|11|-52 1,0,0,0,0,0,0,0,0,0,0,0,0,0,0,1,
scooby_state_449a22|18|-36 1,0,0,0,0,0,0,0,0,0,0,0,0,0,0,1,
scooby_state_448c67|35|29 1,0,0,0,0,0,0,0,0,0,0,0,0,0,0,1,
scooby_state_44677e|53|28 1,0,0,0,0,0,0,0,0,0,0,0,0,0,0,1,
scooby_state_4465fb|59|57 1,0,0,0,0,0,0,0,0,0,0,0,0,0,0,1,
scooby_state_4498d4|19|5 1,0,0,0,0,0,0,0,0,0,0,0,0,0,0,1,
scooby_state_4486ec|47|3 1,0,0,0,0,0,0,0,0,0,0,0,0,0,0,1,
scooby_state_44744b|2|0 0,0,0,1,0,0,0,0,0,0,0,0,0,0,0,1,
scooby_state_44a078|28|0 1,0,0,0,0,0,0,0,0,0,0,0,0,0,0,1,
scooby_state_44677e|31|-2 1,0,0,0,0,0,0,0,0,0,0,0,0,0,0,1,
scooby_state_448d84|24|-32 1,0,0,0,0,0,0,0,0,0,0,0,0,0,0,1,
scooby_state_447da2|52|-11 1,0,0,0,0,0,0,0,0,0,0,0,0,0,0,1,
scooby_state_44a12c|39|6 1,0,0,0,0,0,0,0,0,0,0,0,0,0,0,1,
scooby_state_446741|25|25 1,0,0,0,0,0,0,0,0,0,0,0,0,0,0,1,
scooby_state_446dd2|59|47 1,0,0,0,0,0,0,0,0,0,0,0,0,0,0,1,
scooby_state_446635|3|0 1,0,0,0,0,0,0,0,0,0,0,0,0,0,0,1,
scooby_state_447771|24|9 1,0,0,0,0,0,0,0,0,0,0,0,0,0,0,1,
scooby_state_44677e|37|0 1,0,0,0,0,0,0,0,0,0,0,0,0,0,0,1,
scooby_state_4486a9|48|4 1,0,0,0,0,0,0,0,0,0,0,0,0,0,0,1,
scooby_state_447f28|6|1 1,0,0,0,0,0,0,0,0,0,0,0,0,0,0,1,
scooby_state_4498d4|30|21 1,0,0,0,0,0,0,0,0,0,0,0,0,0,0,1,
scooby_state_44660f|61|28 1,0,0,0,0,0,0,0,0,0,0,0,0,0,0,1,
scooby_state_448c67|7|0 1,0,0,0,0,0,0,0,0,0,0,0,0,0,0,1,
scooby_state_449647|52|33 1,0,0,0,0,0,0,0,0,0,0,0,0,0,0,1,
scooby_state_446d5d|62|41 1,0,0,0,0,0,0,0,0,0,0,0,0,0,0,1,
scooby_state_448cc9|50|17 1,0,0,0,0,0,0,0,0,0,0,0,0,0,0,1,
scooby_state_4497c4|14|-30 1,0,0,0,0,0,0,0,0,0,0,0,0,0,0,1,
scooby_state_44660f|12|0 1,0,0,0,0,0,0,0,0,0,0,0,0,0,0,1,
scooby_state_4497c4|31|-26 1,0,0,0,0,0,0,0,0,0,0,0,0,0,0,1,
scooby_state_44660f|45|28 1,0,0,0,0,0,0,0,0,0,0,0,0,0,0,1,
scooby_state_449f92|56|5 1,0,0,0,0,0,0,0,0,0,0,0,0,0,0,1,
scooby_state_446783|30|1 1,0,0,0,0,0,0,0,0,0,0,0,0,0,0,1,
scooby_state_44738e|60|57 1,0,0,0,0,0,0,0,0,0,0,0,0,0,0,1,
scooby_state_44993e|60|0 1,0,0,0,0,0,0,0,0,0,0,0,0,0,0,1,
scooby_state_44744b|1|0 0,0,0,1,0,0,0,0,0,0,0,0,0,0,0,1,
scooby_state_447346|13|1 1,0,0,0,0,0,0,0,0,0,0,0,0,0,0,1,
scooby_state_4480e2|30|5 1,0,0,0,0,0,0,0,0,0,0,0,0,0,0,1,
scooby_state_44a0a2|19|-23 1,0,0,0,0,0,0,0,0,0,0,0,0,0,0,1,
scooby_state_446245|9|1 1,0,0,0,0,0,0,0,0,0,0,0,0,0,0,1,
scooby_state_4475eb|51|-9 1,0,0,0,0,0,0,0,0,0,0,0,0,0,0,1,
scooby_state_448274|22|-11 1,0,0,0,0,0,0,0,0,0,0,0,0,0,0,1,
scooby_state_44803d|50|4 1,0,0,0,0,0,0,0,0,0,0,0,0,0,0,1,
scooby_state_44677e|35|28 1,0,0,0,0,0,0,0,0,0,0,0,0,0,0,1,
scooby_state_44a2ab|21|0 1,0,0,0,0,0,0,0,0,0,0,0,0,0,0,1,
scooby_state_44973a|24|24 1,0,0,0,0,0,0,0,0,0,0,0,0,0,0,1,
scooby_state_44804c|32|14 1,0,0,0,0,0,0,0,0,0,0,0,0,0,0,1,
scooby_state_448f63|19|0 1,0,0,0,0,0,0,0,0,0,0,0,0,0,0,1,
scooby_state_44a203|8|1 1,0,0,0,0,0,0,0,0,0,0,0,0,0,0,1,
scooby_state_447e06|12|9 1,0,0,0,0,0,0,0,0,0,0,0,0,0,0,1,
scooby_state_449703|46|37 1,0,0,0,0,0,0,0,0,0,0,0,0,0,0,1,
scooby_state_446e44|12|0 0,0,0,0,0,1,0,0,0,0,0,0,0,0,0,1,
scooby_state_449764|48|25 1,0,0,0,0,0,0,0,0,0,0,0,0,0,0,1,
scooby_state_4466d9|30|0 1,0,0,0,0,0,0,0,0,0,0,0,0,0,0,1,
scooby_state_44a203|53|35 1,0,0,0,0,0,0,0,0,0,0,0,0,0,0,1,
scooby_state_449764|33|4 1,0,0,0,0,0,0,0,0,0,0,0,0,0,0,1,
scooby_state_449764|43|13 1,0,0,0,0,0,0,0,0,0,0,0,0,0,0,1,
scooby_state_4497b0|10|1 1,0,0,0,0,0,0,0,0,0,0,0,0,0,0,1,
scooby_state_44660f|0|-29 1,0,0,0,0,0,0,0,0,0,0,0,0,0,0,1,
scooby_state_449f92|15|-29 1,0,0,0,0,0,0,0,0,0,0,0,0,0,0,1,
scooby_state_448819|54|1 1,0,0,0,0,0,0,0,0,0,0,0,0,0,0,1,
scooby_state_447eb2|1|-61 1,0,0,0,0,0,0,0,0,0,0,0,0,0,0,1,
scooby_state_44967a|39|0 1,0,0,0,0,0,0,0,0,0,0,0,0,0,0,1,
scooby_state_447da2|6|-30 1,0,0,0,0,0,0,0,0,0,0,0,0,0,0,1,
scooby_state_44996a|25|3 1,0,0,0,0,0,0,0,0,0,0,0,0,0,0,1,
scooby_state_4497c4|22|-27 1,0,0,0,0,0,0,0,0,0,0,0,0,0,0,1,
scooby_state_44a12c|63|9 1,0,0,0,0,0,0,0,0,0,0,0,0,0,0,1,
scooby_state_44677e|17|0 1,0,0,0,0,0,0,0,0,0,0,0,0,0,0,1,
scooby_state_448ee5|52|33 1,0,0,0,0,0,0,0,0,0,0,0,0,0,0,1,
scooby_state_4499f8|10|-12 1,0,0,0,0,0,0,0,0,0,0,0,0,0,0,1,
scooby_state_447f28|45|2 1,0,0,0,0,0,0,0,0,0,0,0,0,0,0,1,
scooby_state_4469c8|19|-31 1,0,0,0,0,0,0,0,0,0,0,0,0,0,0,1,
scooby_state_448c4a|13|3 1,0,0,0,0,0,0,0,0,0,0,0,0,0,0,1,
scooby_state_448e95|60|5 1,0,0,0,0,0,0,0,0,0,0,0,0,0,0,1,
scooby_state_448d84|32|-22 1,0,0,0,0,0,0,0,0,0,0,0,0,0,0,1,
scooby_state_448d5a|7|-28 1,0,0,0,0,0,0,0,0,0,0,0,0,0,0,1,
scooby_state_449ff6|29|24 1,0,0,0,0,0,0,0,0,0,0,0,0,0,0,1,
scooby_state_44660f|6|0 1,0,0,0,0,0,0,0,0,0,0,0,0,0,0,1,
scooby_state_4465fb|51|0 1,0,0,0,0,0,0,0,0,0,0,0,0,0,0,1,
scooby_state_44a23c|9|-50 1,0,0,0,0,0,0,0,0,0,0,0,0,0,0,1,
scooby_state_4497c4|38|-25 1,0,0,0,0,0,0,0,0,0,0,0,0,0,0,1,
scooby_state_44a22d|8|-49 1,0,0,0,0,0,0,0,0,0,0,0,0,0,0,1,
scooby_state_44660f|53|-1 1,0,0,0,0,0,0,0,0,0,0,0,0,0,0,1,
scooby_state_44843f|3|1 1,0,0,0,0,0,0,0,0,0,0,0,0,0,0,1,
scooby_state_446741|24|24 1,0,0,0,0,0,0,0,0,0,0,0,0,0,0,1,
scooby_state_446e00|56|1 1,0,0,0,0,0,0,0,0,0,0,0,0,0,0,1,
scooby_state_44973a|0|-60 1,0,0,0,0,0,0,0,0,0,0,0,0,0,0,1,
scooby_state_447ef0|19|0 1,0,0,0,0,0,0,0,0,0,0,0,0,0,0,1,
scooby_state_447fed|63|9 1,0,0,0,0,0,0,0,0,0,0,0,0,0,0,1,
scooby_state_447f09|12|11 1,0,0,0,0,0,0,0,0,0,0,0,0,0,0,1,
scooby_state_44660f|45|-1 1,0,0,0,0,0,0,0,0,0,0,0,0,0,0,1,
scooby_state_4497c4|6|-27 1,0,0,0,0,0,0,0,0,0,0,0,0,0,0,1,
scooby_state_448170|10|-40 1,0,0,0,0,0,0,0,0,0,0,0,0,0,0,1,
scooby_state_446917|38|-1 1,0,0,0,0,0,0,0,0,0,0,0,0,0,0,1,
scooby_state_446d01|52|1 1,0,0,0,0,0,0,0,0,0,0,0,0,0,0,1,
scooby_state_4499f8|16|-6 1,0,0,0,0,0,0,0,0,0,0,0,0,0,0,1,
scooby_state_448b03|44|1 1,0,0,0,0,0,0,0,0,0,0,0,0,0,0,1,
scooby_state_44962a|6|-27 1,0,0,0,0,0,0,0,0,0,0,0,0,0,0,1,
scooby_state_448de4|53|5 1,0,0,0,0,0,0,0,0,0,0,0,0,0,0,1,
scooby_state_44666f|36|35 1,0,0,0,0,0,0,0,0,0,0,0,0,0,0,1,
scooby_state_4497c4|41|-22 1,0,0,0,0,0,0,0,0,0,0,0,0,0,0,1,
scooby_state_448393|34|-1 1,0,0,0,0,0,0,0,0,0,0,0,0,0,0,1,
scooby_state_4497e7|55|0 1,0,0,0,0,0,0,0,0,0,0,0,0,0,0,1,
scooby_state_44996a|9|-14 1,0,0,0,0,0,0,0,0,0,0,0,0,0,0,1,
scooby_state_446303|12|1 1,0,0,0,0,0,0,0,0,0,0,0,0,0,0,1,
scooby_state_44a1dd|2|-28 1,0,0,0,0,0,0,0,0,0,0,0,0,0,0,1,
scooby_state_448380|15|2 1,0,0,0,0,0,0,0,0,0,0,0,0,0,0,1,
scooby_state_4498d4|28|20 1,0,0,0,0,0,0,0,0,0,0,0,0,0,0,1,
scooby_state_44973a|22|13 1,0,0,0,0,0,0,0,0,0,0,0,0,0,0,1,
scooby_state_448ff8|42|0 1,0,0,0,0,0,0,0,0,0,0,0,0,0,0,1,
scooby_state_448486|2|1 1,0,0,0,0,0,0,0,0,0,0,0,0,0,0,1,
scooby_state_44a0cc|37|5 1,0,0,0,0,0,0,0,0,0,0,0,0,0,0,1,
scooby_state_447eb2|5|-21 1,0,0,0,0,0,0,0,0,0,0,0,0,0,0,1,
scooby_state_44a12c|63|12 1,0,0,0,0,0,0,0,0,0,0,0,0,0,0,1,
scooby_state_44962a|29|-26 1,0,0,0,0,0,0,0,0,0,0,0,0,0,0,1,
scooby_state_449875|63|37 1,0,0,0,0,0,0,0,0,0,0,0,0,0,0,1,
scooby_state_4473b4|17|0 0,0,1,0,0,0,0,0,0,0,0,0,0,0,0,1,
scooby_state_44973a|0|-62 1,0,0,0,0,0,0,0,0,0,0,0,0,0,0,1,
scooby_state_4465fb|52|0 1,0,0,0,0,0,0,0,0,0,0,0,0,0,0,1,
scooby_state_4486a9|55|0 1,0,0,0,0,0,0,0,0,0,0,0,0,0,0,1,
scooby_state_44967a|16|0 1,0,0,0,0,0,0,0,0,0,0,0,0,0,0,1,
scooby_state_44a23c|16|-16 1,0,0,0,0,0,0,0,0,0,0,0,0,0,0,1,
scooby_state_44803d|52|40 0,0,0,0,0,1,0,0,0,0,0,0,0,0,0,1,
scooby_state_44a100|4|1 1,0,0,0,0,0,0,0,0,0,0,0,0,0,0,1,
scooby_state_44755d|4|4 1,0,0,0,0,0,0,0,0,0,0,0,0,0,0,1,
scooby_state_44677e|37|-1 1,0,0,0,0,0,0,0,0,0,0,0,0,0,0,1,
scooby_state_4468a5|6|-46 1,0,0,0,0,0,0,0,0,0,0,0,0,0,0,1,
scooby_state_448d5a|0|-41 1,0,0,0,0,0,0,0,0,0,0,0,0,0,0,1,
scooby_state_4474f1|59|30 0,0,0,0,0,0,0,0,0,0,0,0,0,0,1,1,
scooby_state_446902|62|0 1,0,0,0,0,0,0,0,0,0,0,0,0,0,0,1,
scooby_state_44a0a2|7|-22 1,0,0,0,0,0,0,0,0,0,0,0,0,0,0,1,
scooby_state_4465e9|60|0 1,0,0,0,0,0,0,0,0,0,0,0,0,0,0,1,
scooby_state_447eb2|0|-60 1,0,0,0,0,0,0,0,0,0,0,0,0,0,0,1,
scooby_state_447f85|62|1 1,0,0,0,0,0,0,0,0,0,0,0,0,0,0,1,
scooby_state_447dbf|53|33 1,0,0,0,0,0,0,0,0,0,0,0,0,0,0,1,
scooby_state_44843f|14|1 1,0,0,0,0,0,0,0,0,0,0,0,0,0,0,1,
scooby_state_448e95|49|36 1,0,0,0,0,0,0,0,0,0,0,0,0,0,0,1,
scooby_state_4484f8|8|1 1,0,0,0,0,0,0,0,0,0,0,0,0,0,0,1,
scooby_state_44973a|0|-57 1,0,0,0,0,0,0,0,0,0,0,0,0,0,0,1,
scooby_state_446626|62|29 1,0,0,0,0,0,0,0,0,0,0,0,0,0,0,1,
scooby_state_44967a|36|0 1,0,0,0,0,0,0,0,0,0,0,0,0,0,0,1,
scooby_state_44a23c|13|0 1,0,0,0,0,0,0,0,0,0,0,0,0,0,0,1,
scooby_state_4487bc|22|1 1,0,0,0,0,0,0,0,0,0,0,0,0,0,0,1,
scooby_state_449764|48|5 1,0,0,0,0,0,0,0,0,0,0,0,0,0,0,1,
scooby_state_44677e|44|0 1,0,0,0,0,0,0,0,0,0,0,0,0,0,0,1,
scooby_state_44819a|28|-35 1,0,0,0,0,0,0,0,0,0,0,0,0,0,0,1,
scooby_state_44a2ab|57|32 1,0,0,0,0,0,0,0,0,0,0,0,0,0,0,1,
scooby_state_44677e|15|-29 1,0,0,0,0,0,0,0,0,0,0,0,0,0,0,1,
scooby_state_44a23c|17|3 1,0,0,0,0,0,0,0,0,0,0,0,0,0,0,1,
scooby_state_44a1e3|41|0 1,0,0,0,0,0,0,0,0,0,0,0,0,0,0,1,
scooby_state_447538|3|0 1,0,0,0,0,0,0,0,0,0,0,0,0,0,0,1,
scooby_state_446626|56|29 1,0,0,0,0,0,0,0,0,0,0,0,0,0,0,1,
scooby_state_44a14f|12|0 1,0,0,0,0,0,0,0,0,0,0,0,0,0,0,1,
scooby_state_4480e2|7|-2 1,0,0,0,0,0,0,0,0,0,0,0,0,0,0,1,
scooby_state_446f84|62|1 0,1,0,0,0,0,0,0,0,0,0,0,0,0,0,1,
scooby_state_4499f8|20|-2 1,0,0,0,0,0,0,0,0,0,0,0,0,0,0,1,
scooby_state_44a2d2|8|-54 1,0,0,0,0,0,0,0,0,0,0,0,0,0,0,1,
scooby_state_4499f8|1|-22 1,0,0,0,0,0,0,0,0,0,0,0,0,0,0,1,
scooby_state_4475eb|49|24 1,0,0,0,0,0,0,0,0,0,0,0,0,0,0,1,
scooby_state_448ef4|27|-10 1,0,0,0,0,0,0,0,0,0,0,0,0,0,0,1,
scooby_state_4465fb|57|57 1,0,0,0,0,0,0,0,0,0,0,0,0,0,0,1,
scooby_state_447771|34|30 1,0,0,0,0,0,0,0,0,0,0,0,0,0,0,1,
scooby_state_44973a|7|-54 1,0,0,0,0,0,0,0,0,0,0,0,0,0,0,1,
scooby_state_44973a|8|4 1,0,0,0,0,0,0,0,0,0,0,0,0,0,0,1,
scooby_state_44a0a2|1|-43 1,0,0,0,0,0,0,0,0,0,0,0,0,0,0,1,
scooby_state_44660f|58|28 1,0,0,0,0,0,0,0,0,0,0,0,0,0,0,1,
scooby_state_448ebb|39|15 1,0,0,0,0,0,0,0,0,0,0,0,0,0,0,1,
scooby_state_448013|26|-32 1,0,0,0,0,0,0,0,0,0,0,0,0,0,0,1,
scooby_state_44a12c|27|-27 1,0,0,0,0,0,0,0,0,0,0,0,0,0,0,1,
scooby_state_44804c|23|15 1,0,0,0,0,0,0,0,0,0,0,0,0,0,0,1,
scooby_state_447747|10|0 1,0,0,0,0,0,0,0,0,0,0,0,0,0,0,1,
scooby_state_4486a0|8|4 1,0,0,0,0,0,0,0,0,0,0,0,0,0,0,1,
scooby_state_4469c8|13|-37 0,1,0,0,0,0,0,0,0,0,0,0,0,0,0,1,
scooby_state_44677e|29|-1 1,0,0,0,0,0,0,0,0,0,0,0,0,0,0,1,
scooby_state_44a340|31|0 1,0,0,0,0,0,0,0,0,0,0,0,0,0,0,1,
scooby_state_44a078|12|0 1,0,0,0,0,0,0,0,0,0,0,0,0,0,0,1,
scooby_state_4486ec|36|3 1,0,0,0,0,0,0,0,0,0,0,0,0,0,0,1,
scooby_state_4481c3|7|1 1,0,0,0,0,0,0,0,0,0,0,0,0,0,0,1,
scooby_state_447747|12|0 1,0,0,0,0,0,0,0,0,0,0,0,0,0,0,1,
scooby_state_44755d|14|14 1,0,0,0,0,0,0,0,0,0,0,0,0,0,0,1,
scooby_state_446650|11|-51 1,0,0,0,0,0,0,0,0,0,0,0,0,0,0,1,
scooby_state_446772|44|29 1,0,0,0,0,0,0,0,0,0,0,0,0,0,0,1,
scooby_state_446907|44|29 1,0,0,0,0,0,0,0,0,0,0,0,0,0,0,1,
scooby_state_44677e|33|-29 1,0,0,0,0,0,0,0,0,0,0,0,0,0,0,1,
scooby_state_44744b|62|22 1,0,0,0,0,0,0,0,0,0,0,0,0,0,0,1,
scooby_state_447edc|24|-19 1,0,0,0,0,0,0,0,0,0,0,0,0,0,0,1,
scooby_state_447edc|23|11 1,0,0,0,0,0,0,0,0,0,0,0,0,0,0,1,
scooby_state_4466cc|62|22 1,0,0,0,0,0,0,0,0,0,0,0,0,0,0,1,
scooby_state_44744b|42|2 1,0,0,0,0,0,0,0,0,0,0,0,0,0,0,1,
scooby_state_4497c4|58|5 1,0,0,0,0,0,0,0,0,0,0,0,0,0,0,1,
scooby_state_44738e|55|-2 1,0,0,0,0,0,0,0,0,0,0,0,0,0,0,1,
scooby_state_4466cc|63|50 1,0,0,0,0,0,0,0,0,0,0,0,0,0,0,1,
scooby_state_4474f1|16|1 0,0,0,0,0,0,0,0,0,0,0,0,0,0,1,1,
scooby_state_4497b0|21|1 1,0,0,0,0,0,0,0,0,0,0,0,0,0,0,1,
scooby_state_449703|41|32 1,0,0,0,0,0,0,0,0,0,0,0,0,0,0,1,
scooby_state_447615|59|50 1,0,0,0,0,0,0,0,0,0,0,0,0,0,0,1,
scooby_state_446e44|2|2 1,0,0,0,0,0,0,0,0,0,0,0,0,0,0,1,
scooby_state_4474f1|52|30 0,0,0,0,0,0,0,0,0,0,0,0,0,0,1,1,
scooby_state_446791|60|58 1,0,0,0,0,0,0,0,0,0,0,0,0,0,0,1,
scooby_state_4475cb|59|0 1,0,0,0,0,0,0,0,0,0,0,0,0,0,0,1,
scooby_state_44783b|32|23 1,0,0,0,0,0,0,0,0,0,0,0,0,0,0,1,
scooby_state_448d84|23|-12 1,0,0,0,0,0,0,0,0,0,0,0,0,0,0,1,
scooby_state_449703|42|33 1,0,0,0,0,0,0,0,0,0,0,0,0,0,0,1,
scooby_state_448cc9|61|32 1,0,0,0,0,0,0,0,0,0,0,0,0,0,0,1,
scooby_state_446dd2|53|15 1,0,0,0,0,0,0,0,0,0,0,0,0,0,0,1,
scooby_state_448002|0|0 1,0,0,0,0,0,0,0,0,0,0,0,0,0,0,1,
scooby_state_44660f|28|28 1,0,0,0,0,0,0,0,0,0,0,0,0,0,0,1,
scooby_state_4496a9|0|-9 1,0,0,0,0,0,0,0,0,0,0,0,0,0,0,1,
scooby_state_447edc|46|2 1,0,0,0,0,0,0,0,0,0,0,0,0,0,0,1,
scooby_state_44660f|42|1 1,0,0,0,0,0,0,0,0,0,0,0,0,0,0,1,
scooby_state_448c4a|39|-24 1,0,0,0,0,0,0,0,0,0,0,0,0,0,0,1,
scooby_state_4497c4|16|-27 1,0,0,0,0,0,0,0,0,0,0,0,0,0,0,1,
scooby_state_4497b0|17|1 1,0,0,0,0,0,0,0,0,0,0,0,0,0,0,1,
scooby_state_4487bc|34|1 1,0,0,0,0,0,0,0,0,0,0,0,0,0,0,1,
scooby_state_44677e|35|1 1,0,0,0,0,0,0,0,0,0,0,0,0,0,0,1,
scooby_state_44808f|34|0 1,0,0,0,0,0,0,0,0,0,0,0,0,0,0,1,
scooby_state_447f5f|57|0 1,0,0,0,0,0,0,0,0,0,0,0,0,0,0,1,

scooby_action_0_deg_dist 0,8847,0,0,0,0,0,0,0,0,0,0,0,0,0,0,
scooby_action_12_deg_dist 0,5433,2419,0,5407,0,5526,0,0,0,0,0,0,0,0,0,
scooby_action_3_deg_dist 0,1709,0,0,0,0,0,0,0,0,0,0,0,0,0,0,
scooby_action_32_deg_dist 0,1167,0,0,0,0,0,0,0,0,0,0,0,0,0,0,
scooby_action_5_deg_dist 0,1400,1,0,0,0,0,0,0,0,0,0,0,0,0,0,
scooby_action_1_deg_dist 0,1255063,565859,0,421369,0,3012422,0,0,0,0,0,0,0,0,0,
scooby_action_30_deg_dist 0,21636,794,0,0,0,0,0,0,0,0,0,0,0,0,0,
scooby_action_4_deg_dist 0,6109,2573,0,6427,0,72974,0,0,0,0,0,0,0,0,0,
scooby_action_-3_deg_dist 0,1320,1,0,0,0,0,0,0,0,0,0,0,0,0,0,
scooby_action_10_deg_dist 0,1418,0,0,0,0,0,0,0,0,0,0,0,0,0,0,
scooby_action_-1_deg_dist 0,2560,0,0,0,0,0,0,0,0,0,0,0,0,0,0,
scooby_action_23_deg_dist 0,1361,0,0,0,0,0,0,0,0,0,0,0,0,0,0,
scooby_action_-6_deg_dist 0,1297,0,0,0,0,0,0,0,0,0,0,0,0,0,0,
scooby_action_11_deg_dist 0,5029,2207,0,5328,0,13329,0,0,0,0,0,0,0,0,0,
scooby_action_22_deg_dist 0,1234,2,0,0,0,0,0,0,0,0,0,0,0,0,0,

scooby_track_called 5432221
scooby_track_same_address 15516
scooby_track_evict 5416449

scooby_reward_demand_called 5432221
scooby_reward_demand_pt_not_found 1095524
scooby_reward_demand_pt_found 4336697
scooby_reward_demand_pt_found_total 4336697
scooby_reward_demand_has_reward 5689
scooby_reward_train_called 976254
scooby_reward_assign_reward_called 5416670
scooby_reward_no_pref 8847
scooby_reward_incorrect 967407
scooby_reward_correct_untimely 3359446
scooby_reward_correct_timely 971562
scooby_reward_out_of_bounds 109408
scooby_reward_tracker_hit 0

scooby_reward_none_low_bw 8847
scooby_reward_none_high_bw 0
scooby_reward_incorrect_low_bw 967407
scooby_reward_incorrect_high_bw 0
scooby_reward_correct_untimely_low_bw 3359446
scooby_reward_correct_untimely_high_bw 0
scooby_reward_correct_timely_low_bw 971562
scooby_reward_correct_timely_high_bw 0
scooby_reward_out_of_bounds_low_bw 109408
scooby_reward_out_of_bounds_high_bw 0
scooby_reward_tracker_hit_low_bw 0
scooby_reward_tracker_hit_high_bw 0

scooby_reward_1 0,945337,3278301,932208,85044,0,
scooby_reward_3 0,959,410,46,84,0,
scooby_reward_4 0,2659,70787,9079,5470,0,
scooby_reward_5 0,945,273,79,103,0,
scooby_reward_10 0,822,54,306,222,0,
scooby_reward_11 0,2300,6081,13092,4405,0,
scooby_reward_12 0,2685,2225,10277,3576,0,
scooby_reward_22 0,775,1,40,405,0,
scooby_reward_23 0,804,0,13,465,0,
scooby_reward_30 0,6823,267,6417,8903,0,
scooby_reward_32 0,576,14,4,572,0,
scooby_reward_-1 0,1023,1032,1,21,0,
scooby_reward_-3 0,878,0,0,51,0,
scooby_reward_-6 0,821,1,0,87,0,
scooby_reward_0 8847,0,0,0,0,0,

scooby_train_called 5416448
scooby_train_compute_reward 976254

scooby_register_fill_called 4899028
scooby_register_fill_set 1454355
scooby_register_fill_set_total 1454355

scooby_register_prefetch_hit_called 16285184
scooby_register_prefetch_hit_set 3857296
scooby_register_prefetch_hit_set_total 3857296

scooby_pref_issue_scooby 21232074

learning_engine_featurewise.action.called 5432221
learning_engine_featurewise.action.explore 9874
learning_engine_featurewise.action.exploit 5422347
learning_engine_featurewise.action.fallback 160051
learning_engine_featurewise.action.dyn_fallback_saved_bw 0
learning_engine_featurewise.action.dyn_fallback_saved_bw_acc 71313
learning_engine_featurewise.action.index_1_explored 678
learning_engine_featurewise.action.index_1_exploited 5254035
learning_engine_featurewise.action.index_3_explored 677
learning_engine_featurewise.action.index_3_exploited 1032
learning_engine_featurewise.action.index_4_explored 664
learning_engine_featurewise.action.index_4_exploited 87419
learning_engine_featurewise.action.index_5_explored 626
learning_engine_featurewise.action.index_5_exploited 775
learning_engine_featurewise.action.index_10_explored 707
learning_engine_featurewise.action.index_10_exploited 711
learning_engine_featurewise.action.index_11_explored 669
learning_engine_featurewise.action.index_11_exploited 25224
learning_engine_featurewise.action.index_12_explored 687
learning_engine_featurewise.action.index_12_exploited 18098
learning_engine_featurewise.action.index_22_explored 656
learning_engine_featurewise.action.index_22_exploited 580
learning_engine_featurewise.action.index_23_explored 669
learning_engine_featurewise.action.index_23_exploited 692
learning_engine_featurewise.action.index_30_explored 644
learning_engine_featurewise.action.index_30_exploited 21786
learning_engine_featurewise.action.index_32_explored 607
learning_engine_featurewise.action.index_32_exploited 560
learning_engine_featurewise.action.index_-1_explored 659
learning_engine_featurewise.action.index_-1_exploited 1901
learning_engine_featurewise.action.index_-3_explored 644
learning_engine_featurewise.action.index_-3_exploited 677
learning_engine_featurewise.action.index_-6_explored 641
learning_engine_featurewise.action.index_-6_exploited 656
learning_engine_featurewise.action.index_0_explored 646
learning_engine_featurewise.action.index_0_exploited 8201
learning_engine_featurewise.learn.called 5416448
learning_engine_featurewise.learn.su_skip_PC 0
learning_engine_featurewise.learn.su_skip_PC_Delta 0

learning_engine_featurewise.q_value_histogram.bucket_0 0
learning_engine_featurewise.q_value_histogram.bucket_1 0
learning_engine_featurewise.q_value_histogram.bucket_2 166376
learning_engine_featurewise.q_value_histogram.bucket_3 5072
learning_engine_featurewise.q_value_histogram.bucket_4 10032
learning_engine_featurewise.q_value_histogram.bucket_5 71631
learning_engine_featurewise.q_value_histogram.bucket_6 5169236
learning_engine_featurewise.q_value_histogram.bucket_7 0

learning_engine_featurewise.consensus.total 5422347
learning_engine_featurewise.consensus.feature_align_PC 5357645
learning_engine_featurewise.consensus.feature_align_PC_ratio 0.99
learning_engine_featurewise.consensus.feature_align_PC_Delta 5335061
learning_engine_featurewise.consensus.feature_align_PC_Delta_ratio 0.98
learning_engine_featurewise.consensus.feature_align_all 5270359
learning_engine_featurewise.consensus.feature_align_all_ratio 0.97

learning_engine_featurewise.feature_PC_min_weight 1000000.00000000
learning_engine_featurewise.feature_PC_max_weight 0.00000000
learning_engine_featurewise.feature_PC_Delta_min_weight 1000000.00000000
learning_engine_featurewise.feature_PC_Delta_max_weight 0.00000000
unique_pcs 714
unique_pages 169020
unique_trigger_pcs 284
total_bitmaps_seen 0
unique_bitmaps_seen 0

scooby_bw_epochs 3204785
scooby_bw_level_0 1679886
scooby_bw_level_1 587351
scooby_bw_level_2 420215
scooby_bw_level_3 517333

scooby_ipc_epochs 0
scooby_ipc_level_0 0
scooby_ipc_level_1 0
scooby_ipc_level_2 0
scooby_ipc_level_3 0

scooby_cache_acc_epochs 788031
scooby_cache_acc_level_0 124
scooby_cache_acc_level_1 4506
scooby_cache_acc_level_2 13148
scooby_cache_acc_level_3 25022
scooby_cache_acc_level_4 42231
scooby_cache_acc_level_5 65027
scooby_cache_acc_level_6 69546
scooby_cache_acc_level_7 75070
scooby_cache_acc_level_8 87713
scooby_cache_acc_level_9 405644

Channel_0_RQ_row_buffer_hit 1660391
Channel_0_RQ_row_buffer_miss 2038753
Channel_0_WQ_row_buffer_hit 298698
Channel_0_WQ_row_buffer_miss 1587749
Channel_0_WQ_full 0
Channel_0_dbus_congested 3256390

avg_congested_cycle 35

DRAM_bw_pochs 3204785
DRAM_bw_level_0 1679886
DRAM_bw_level_1 587351
DRAM_bw_level_2 420215
DRAM_bw_level_3 517333
