*************************************************
   ChampSim Multicore Out-of-Order Simulator
   Last compiled: Dec 11 2024 17:59:53
*************************************************
parsing config file: /home/functionmain/桌面/Pythia/config/bingo.ini

trace_0 /home/functionmain/桌面/Pythia/traces/459.GemsFDTD-1418B.champsimtrace.xz
adding L2C_PREFETCHER: Bingo
Initialize SHIP state
warmup_instructions 100000000
simulation_instructions 500000000
champsim_seed 272
measure_ipc 0
measure_ipc_epoch 1000
measure_dram_bw 1
measure_dram_bw_epoch 256
measure_cache_acc 1
measure_cache_acc_epoch 1024
l1d_perfect 0
l2c_perfect 0
llc_perfect 0
l1d_semi_perfect 0
l2c_semi_perfect 0
llc_semi_perfect 0
semi_perfect_cache_page_buffer_size 64

num_cpus 1
cpu_freq 4000
dram_io_freq 300
page_size 4096
block_size 64
max_read_per_cycle 8
max_fill_per_cycle 1
dram_channels 1
log2_dram_channels 0
dram_ranks 1
dram_banks 8
dram_rows 65536
dram_columns 128
dram_row_size 8
dram_size 4096
dram_pages 1048576

fetch_width 6
decode_width 6
exec_width 4
lq_width 2
sq_width 2
retire_width 4
scheduler_size 128
branch_mispredict_penalty 20
rob_size 256
lq_size 72
sq_size 56
num_instr_destinations_sparc 4
num_instr_destinations 2
num_instr_sources 4

itlb_set 16
itlb_way 8
itlb_rq_size 16
itlb_wq_size 16
itlb_pq_size 0
itlb_mshr_size 8
itlb_latency 1

dtlb_set 16
dtlb_way 4
dtlb_rq_size 16
dtlb_wq_size 16
dtlb_pq_size 0
dtlb_mshr_size 8
dtlb_latency 1

stlb_set 128
stlb_way 12
stlb_rq_size 32
stlb_wq_size 32
stlb_pq_size 0
stlb_mshr_size 16
stlb_latency 8

l1i_size 32
l1i_set 64
l1i_way 8
l1i_rq_size 64
l1i_wq_size 64
l1i_pq_size 8
l1i_mshr_size 8
l1i_latency 1

l1d_size 32
l1d_set 64
l1d_way 8
l1d_rq_size 64
l1d_wq_size 64
l1d_pq_size 8
l1d_mshr_size 16
l1d_latency 4

l2c_size 256
l2c_set 512
l2c_way 8
l2c_rq_size 32
l2c_wq_size 32
l2c_pq_size 32
l2c_mshr_size 32
l2c_latency 10

llc_size 2048
llc_set 2048
llc_way 16
llc_rq_size 32
llc_wq_size 32
llc_pq_size 32
llc_mshr_size 64
llc_latency 20

dram_channel_width 8
dram_wq_size 64
dram_rq_size 64
tRP 15
tRCD 15
tCAS 12.5
dram_dbus_turn_around_time 30
dram_write_high_wm 56
dram_write_low_wm 48
min_dram_writes_per_switch 16
dram_mtps 300
dram_dbus_return_time 106

bingo_region_size 2048
bingo_pattern_len 32
bingo_pc_width 16
bingo_min_addr_width 5
bingo_max_addr_width 16
bingo_ft_size 64
bingo_at_size 128
bingo_pht_size 4096
bingo_pht_ways 16
bingo_pf_streamer_size 128
bingo_debug_level 0
bingo_l1d_thresh 1.01
bingo_l2c_thresh 0.8
bingo_llc_thresh 0.05
bingo_pc_address_fill_level L2


Heartbeat CPU  0 instructions:    1000001 cycles:     779108 heartbeat IPC: 1.28352 cumulative IPC: 1.28352 (Simulation time: 0 hr 0 min 3 sec) 
Heartbeat CPU  0 instructions:    2000002 cycles:    1557983 heartbeat IPC: 1.28390 cumulative IPC: 1.28371 (Simulation time: 0 hr 0 min 6 sec) 
Heartbeat CPU  0 instructions:    3000003 cycles:    2336573 heartbeat IPC: 1.28437 cumulative IPC: 1.28393 (Simulation time: 0 hr 0 min 9 sec) 
Heartbeat CPU  0 instructions:    4000000 cycles:    3115273 heartbeat IPC: 1.28419 cumulative IPC: 1.28400 (Simulation time: 0 hr 0 min 12 sec) 
Heartbeat CPU  0 instructions:    5000001 cycles:    3893987 heartbeat IPC: 1.28417 cumulative IPC: 1.28403 (Simulation time: 0 hr 0 min 15 sec) 
Heartbeat CPU  0 instructions:    6000002 cycles:    4672670 heartbeat IPC: 1.28422 cumulative IPC: 1.28406 (Simulation time: 0 hr 0 min 18 sec) 
Heartbeat CPU  0 instructions:    7000003 cycles:    5451319 heartbeat IPC: 1.28428 cumulative IPC: 1.28409 (Simulation time: 0 hr 0 min 21 sec) 
Heartbeat CPU  0 instructions:    8000000 cycles:    6229636 heartbeat IPC: 1.28482 cumulative IPC: 1.28418 (Simulation time: 0 hr 0 min 24 sec) 
Heartbeat CPU  0 instructions:    9000002 cycles:    7008281 heartbeat IPC: 1.28428 cumulative IPC: 1.28420 (Simulation time: 0 hr 0 min 27 sec) 
Heartbeat CPU  0 instructions:   10000003 cycles:    7786874 heartbeat IPC: 1.28437 cumulative IPC: 1.28421 (Simulation time: 0 hr 0 min 30 sec) 
Heartbeat CPU  0 instructions:   11000000 cycles:    8565316 heartbeat IPC: 1.28461 cumulative IPC: 1.28425 (Simulation time: 0 hr 0 min 33 sec) 
Heartbeat CPU  0 instructions:   12000000 cycles:    9343786 heartbeat IPC: 1.28457 cumulative IPC: 1.28428 (Simulation time: 0 hr 0 min 36 sec) 
Heartbeat CPU  0 instructions:   13000003 cycles:   10122621 heartbeat IPC: 1.28397 cumulative IPC: 1.28425 (Simulation time: 0 hr 0 min 39 sec) 
Heartbeat CPU  0 instructions:   14000000 cycles:   10901183 heartbeat IPC: 1.28442 cumulative IPC: 1.28426 (Simulation time: 0 hr 0 min 42 sec) 
Heartbeat CPU  0 instructions:   15000001 cycles:   11679764 heartbeat IPC: 1.28439 cumulative IPC: 1.28427 (Simulation time: 0 hr 0 min 44 sec) 
Heartbeat CPU  0 instructions:   16000000 cycles:   12458573 heartbeat IPC: 1.28401 cumulative IPC: 1.28426 (Simulation time: 0 hr 0 min 47 sec) 
Heartbeat CPU  0 instructions:   17000003 cycles:   13237065 heartbeat IPC: 1.28454 cumulative IPC: 1.28427 (Simulation time: 0 hr 0 min 50 sec) 
Heartbeat CPU  0 instructions:   18000000 cycles:   14015478 heartbeat IPC: 1.28466 cumulative IPC: 1.28429 (Simulation time: 0 hr 0 min 53 sec) 
Heartbeat CPU  0 instructions:   19000003 cycles:   14794141 heartbeat IPC: 1.28426 cumulative IPC: 1.28429 (Simulation time: 0 hr 0 min 56 sec) 
Heartbeat CPU  0 instructions:   20000000 cycles:   15572711 heartbeat IPC: 1.28440 cumulative IPC: 1.28430 (Simulation time: 0 hr 0 min 59 sec) 
Heartbeat CPU  0 instructions:   21000003 cycles:   16351609 heartbeat IPC: 1.28387 cumulative IPC: 1.28428 (Simulation time: 0 hr 1 min 2 sec) 
Heartbeat CPU  0 instructions:   22000000 cycles:   17130101 heartbeat IPC: 1.28453 cumulative IPC: 1.28429 (Simulation time: 0 hr 1 min 5 sec) 
Heartbeat CPU  0 instructions:   23000003 cycles:   17908757 heartbeat IPC: 1.28427 cumulative IPC: 1.28429 (Simulation time: 0 hr 1 min 8 sec) 
Heartbeat CPU  0 instructions:   24000000 cycles:   18687583 heartbeat IPC: 1.28398 cumulative IPC: 1.28428 (Simulation time: 0 hr 1 min 11 sec) 
Heartbeat CPU  0 instructions:   25000001 cycles:   19465924 heartbeat IPC: 1.28479 cumulative IPC: 1.28430 (Simulation time: 0 hr 1 min 14 sec) 
Heartbeat CPU  0 instructions:   26000001 cycles:   20244465 heartbeat IPC: 1.28445 cumulative IPC: 1.28430 (Simulation time: 0 hr 1 min 17 sec) 
Heartbeat CPU  0 instructions:   27000002 cycles:   21023145 heartbeat IPC: 1.28423 cumulative IPC: 1.28430 (Simulation time: 0 hr 1 min 20 sec) 
Heartbeat CPU  0 instructions:   28000000 cycles:   21801697 heartbeat IPC: 1.28443 cumulative IPC: 1.28430 (Simulation time: 0 hr 1 min 22 sec) 
Heartbeat CPU  0 instructions:   29000001 cycles:   22580206 heartbeat IPC: 1.28451 cumulative IPC: 1.28431 (Simulation time: 0 hr 1 min 25 sec) 
Heartbeat CPU  0 instructions:   30000002 cycles:   23358947 heartbeat IPC: 1.28413 cumulative IPC: 1.28430 (Simulation time: 0 hr 1 min 28 sec) 
Heartbeat CPU  0 instructions:   31000003 cycles:   24137539 heartbeat IPC: 1.28437 cumulative IPC: 1.28431 (Simulation time: 0 hr 1 min 31 sec) 
Heartbeat CPU  0 instructions:   32000000 cycles:   24916043 heartbeat IPC: 1.28451 cumulative IPC: 1.28431 (Simulation time: 0 hr 1 min 34 sec) 
Heartbeat CPU  0 instructions:   33000003 cycles:   25694577 heartbeat IPC: 1.28447 cumulative IPC: 1.28432 (Simulation time: 0 hr 1 min 37 sec) 
Heartbeat CPU  0 instructions:   34000002 cycles:   26463853 heartbeat IPC: 1.29992 cumulative IPC: 1.28477 (Simulation time: 0 hr 1 min 40 sec) 
Heartbeat CPU  0 instructions:   35000001 cycles:   27246027 heartbeat IPC: 1.27849 cumulative IPC: 1.28459 (Simulation time: 0 hr 1 min 43 sec) 
Heartbeat CPU  0 instructions:   36000000 cycles:   28026657 heartbeat IPC: 1.28102 cumulative IPC: 1.28449 (Simulation time: 0 hr 1 min 46 sec) 
Heartbeat CPU  0 instructions:   37000000 cycles:   28807299 heartbeat IPC: 1.28100 cumulative IPC: 1.28440 (Simulation time: 0 hr 1 min 49 sec) 
Heartbeat CPU  0 instructions:   38000001 cycles:   29587637 heartbeat IPC: 1.28150 cumulative IPC: 1.28432 (Simulation time: 0 hr 1 min 52 sec) 
Heartbeat CPU  0 instructions:   39000003 cycles:   30368132 heartbeat IPC: 1.28124 cumulative IPC: 1.28424 (Simulation time: 0 hr 1 min 55 sec) 
Heartbeat CPU  0 instructions:   40000000 cycles:   31148986 heartbeat IPC: 1.28065 cumulative IPC: 1.28415 (Simulation time: 0 hr 1 min 58 sec) 
Heartbeat CPU  0 instructions:   41000000 cycles:   31929899 heartbeat IPC: 1.28055 cumulative IPC: 1.28406 (Simulation time: 0 hr 2 min 1 sec) 
Heartbeat CPU  0 instructions:   42000002 cycles:   32710313 heartbeat IPC: 1.28137 cumulative IPC: 1.28400 (Simulation time: 0 hr 2 min 4 sec) 
Heartbeat CPU  0 instructions:   43000000 cycles:   33490427 heartbeat IPC: 1.28186 cumulative IPC: 1.28395 (Simulation time: 0 hr 2 min 7 sec) 
Heartbeat CPU  0 instructions:   44000000 cycles:   34269838 heartbeat IPC: 1.28302 cumulative IPC: 1.28393 (Simulation time: 0 hr 2 min 10 sec) 
Heartbeat CPU  0 instructions:   45000000 cycles:   35049536 heartbeat IPC: 1.28255 cumulative IPC: 1.28390 (Simulation time: 0 hr 2 min 13 sec) 
Heartbeat CPU  0 instructions:   46000002 cycles:   35829160 heartbeat IPC: 1.28267 cumulative IPC: 1.28387 (Simulation time: 0 hr 2 min 16 sec) 
Heartbeat CPU  0 instructions:   47000001 cycles:   36608152 heartbeat IPC: 1.28371 cumulative IPC: 1.28387 (Simulation time: 0 hr 2 min 19 sec) 
Heartbeat CPU  0 instructions:   48000000 cycles:   37386981 heartbeat IPC: 1.28398 cumulative IPC: 1.28387 (Simulation time: 0 hr 2 min 22 sec) 
Heartbeat CPU  0 instructions:   49000001 cycles:   38166867 heartbeat IPC: 1.28224 cumulative IPC: 1.28384 (Simulation time: 0 hr 2 min 25 sec) 
Heartbeat CPU  0 instructions:   50000002 cycles:   38946669 heartbeat IPC: 1.28238 cumulative IPC: 1.28381 (Simulation time: 0 hr 2 min 28 sec) 
Heartbeat CPU  0 instructions:   51000000 cycles:   39725561 heartbeat IPC: 1.28387 cumulative IPC: 1.28381 (Simulation time: 0 hr 2 min 31 sec) 
Heartbeat CPU  0 instructions:   52000000 cycles:   40504493 heartbeat IPC: 1.28381 cumulative IPC: 1.28381 (Simulation time: 0 hr 2 min 34 sec) 
Heartbeat CPU  0 instructions:   53000002 cycles:   41285233 heartbeat IPC: 1.28084 cumulative IPC: 1.28375 (Simulation time: 0 hr 2 min 37 sec) 
Heartbeat CPU  0 instructions:   54000000 cycles:   42065666 heartbeat IPC: 1.28134 cumulative IPC: 1.28371 (Simulation time: 0 hr 2 min 40 sec) 
Heartbeat CPU  0 instructions:   55000003 cycles:   42845655 heartbeat IPC: 1.28207 cumulative IPC: 1.28368 (Simulation time: 0 hr 2 min 43 sec) 
Heartbeat CPU  0 instructions:   56000000 cycles:   43625916 heartbeat IPC: 1.28162 cumulative IPC: 1.28364 (Simulation time: 0 hr 2 min 46 sec) 
Heartbeat CPU  0 instructions:   57000001 cycles:   44407116 heartbeat IPC: 1.28008 cumulative IPC: 1.28358 (Simulation time: 0 hr 2 min 49 sec) 
Heartbeat CPU  0 instructions:   58000000 cycles:   45187761 heartbeat IPC: 1.28099 cumulative IPC: 1.28353 (Simulation time: 0 hr 2 min 52 sec) 
Heartbeat CPU  0 instructions:   59000001 cycles:   45968151 heartbeat IPC: 1.28141 cumulative IPC: 1.28350 (Simulation time: 0 hr 2 min 55 sec) 
Heartbeat CPU  0 instructions:   60000000 cycles:   46748660 heartbeat IPC: 1.28121 cumulative IPC: 1.28346 (Simulation time: 0 hr 2 min 58 sec) 
Heartbeat CPU  0 instructions:   61000003 cycles:   47529735 heartbeat IPC: 1.28029 cumulative IPC: 1.28341 (Simulation time: 0 hr 3 min 1 sec) 
Heartbeat CPU  0 instructions:   62000002 cycles:   48308959 heartbeat IPC: 1.28333 cumulative IPC: 1.28341 (Simulation time: 0 hr 3 min 4 sec) 
Heartbeat CPU  0 instructions:   63000002 cycles:   49088240 heartbeat IPC: 1.28323 cumulative IPC: 1.28340 (Simulation time: 0 hr 3 min 6 sec) 
Heartbeat CPU  0 instructions:   64000000 cycles:   49867399 heartbeat IPC: 1.28343 cumulative IPC: 1.28340 (Simulation time: 0 hr 3 min 9 sec) 
Heartbeat CPU  0 instructions:   65000002 cycles:   50646931 heartbeat IPC: 1.28282 cumulative IPC: 1.28339 (Simulation time: 0 hr 3 min 12 sec) 
Heartbeat CPU  0 instructions:   66000001 cycles:   51425806 heartbeat IPC: 1.28390 cumulative IPC: 1.28340 (Simulation time: 0 hr 3 min 15 sec) 
Heartbeat CPU  0 instructions:   67000003 cycles:   52204760 heartbeat IPC: 1.28378 cumulative IPC: 1.28341 (Simulation time: 0 hr 3 min 18 sec) 
Heartbeat CPU  0 instructions:   68000000 cycles:   52984709 heartbeat IPC: 1.28213 cumulative IPC: 1.28339 (Simulation time: 0 hr 3 min 21 sec) 
Heartbeat CPU  0 instructions:   69000002 cycles:   53764085 heartbeat IPC: 1.28308 cumulative IPC: 1.28338 (Simulation time: 0 hr 3 min 24 sec) 
Heartbeat CPU  0 instructions:   70000001 cycles:   54543744 heartbeat IPC: 1.28261 cumulative IPC: 1.28337 (Simulation time: 0 hr 3 min 27 sec) 
Heartbeat CPU  0 instructions:   71000003 cycles:   55323792 heartbeat IPC: 1.28197 cumulative IPC: 1.28335 (Simulation time: 0 hr 3 min 30 sec) 
Heartbeat CPU  0 instructions:   72000000 cycles:   56104016 heartbeat IPC: 1.28168 cumulative IPC: 1.28333 (Simulation time: 0 hr 3 min 33 sec) 
Heartbeat CPU  0 instructions:   73000000 cycles:   56885184 heartbeat IPC: 1.28013 cumulative IPC: 1.28329 (Simulation time: 0 hr 3 min 36 sec) 
Heartbeat CPU  0 instructions:   74000002 cycles:   57665743 heartbeat IPC: 1.28114 cumulative IPC: 1.28326 (Simulation time: 0 hr 3 min 39 sec) 
Heartbeat CPU  0 instructions:   75000000 cycles:   58446934 heartbeat IPC: 1.28009 cumulative IPC: 1.28322 (Simulation time: 0 hr 3 min 42 sec) 
Heartbeat CPU  0 instructions:   76000000 cycles:   59227627 heartbeat IPC: 1.28091 cumulative IPC: 1.28319 (Simulation time: 0 hr 3 min 45 sec) 
Heartbeat CPU  0 instructions:   77000003 cycles:   60007539 heartbeat IPC: 1.28220 cumulative IPC: 1.28317 (Simulation time: 0 hr 3 min 48 sec) 
Heartbeat CPU  0 instructions:   78000001 cycles:   60787740 heartbeat IPC: 1.28172 cumulative IPC: 1.28315 (Simulation time: 0 hr 3 min 51 sec) 
Heartbeat CPU  0 instructions:   79000001 cycles:   61569010 heartbeat IPC: 1.27997 cumulative IPC: 1.28311 (Simulation time: 0 hr 3 min 54 sec) 
Heartbeat CPU  0 instructions:   80000000 cycles:   62349231 heartbeat IPC: 1.28169 cumulative IPC: 1.28310 (Simulation time: 0 hr 3 min 57 sec) 
Heartbeat CPU  0 instructions:   81000001 cycles:   63128064 heartbeat IPC: 1.28397 cumulative IPC: 1.28311 (Simulation time: 0 hr 4 min 0 sec) 
Heartbeat CPU  0 instructions:   82000002 cycles:   63906649 heartbeat IPC: 1.28438 cumulative IPC: 1.28312 (Simulation time: 0 hr 4 min 3 sec) 
Heartbeat CPU  0 instructions:   83000000 cycles:   64687832 heartbeat IPC: 1.28011 cumulative IPC: 1.28309 (Simulation time: 0 hr 4 min 6 sec) 
Heartbeat CPU  0 instructions:   84000000 cycles:   65466902 heartbeat IPC: 1.28358 cumulative IPC: 1.28309 (Simulation time: 0 hr 4 min 9 sec) 
Heartbeat CPU  0 instructions:   85000002 cycles:   66245791 heartbeat IPC: 1.28388 cumulative IPC: 1.28310 (Simulation time: 0 hr 4 min 12 sec) 
Heartbeat CPU  0 instructions:   86000001 cycles:   67024826 heartbeat IPC: 1.28364 cumulative IPC: 1.28311 (Simulation time: 0 hr 4 min 15 sec) 
Heartbeat CPU  0 instructions:   87000001 cycles:   67804078 heartbeat IPC: 1.28328 cumulative IPC: 1.28311 (Simulation time: 0 hr 4 min 17 sec) 
Heartbeat CPU  0 instructions:   88000000 cycles:   68583282 heartbeat IPC: 1.28336 cumulative IPC: 1.28311 (Simulation time: 0 hr 4 min 20 sec) 
Heartbeat CPU  0 instructions:   89000001 cycles:   69363424 heartbeat IPC: 1.28182 cumulative IPC: 1.28310 (Simulation time: 0 hr 4 min 23 sec) 
Heartbeat CPU  0 instructions:   90000003 cycles:   70143592 heartbeat IPC: 1.28178 cumulative IPC: 1.28308 (Simulation time: 0 hr 4 min 26 sec) 
Heartbeat CPU  0 instructions:   91000001 cycles:   70923874 heartbeat IPC: 1.28159 cumulative IPC: 1.28307 (Simulation time: 0 hr 4 min 29 sec) 
Heartbeat CPU  0 instructions:   92000000 cycles:   71704491 heartbeat IPC: 1.28104 cumulative IPC: 1.28304 (Simulation time: 0 hr 4 min 32 sec) 
Heartbeat CPU  0 instructions:   93000002 cycles:   72484941 heartbeat IPC: 1.28131 cumulative IPC: 1.28303 (Simulation time: 0 hr 4 min 35 sec) 
Heartbeat CPU  0 instructions:   94000000 cycles:   73265313 heartbeat IPC: 1.28144 cumulative IPC: 1.28301 (Simulation time: 0 hr 4 min 38 sec) 
Heartbeat CPU  0 instructions:   95000001 cycles:   74045414 heartbeat IPC: 1.28189 cumulative IPC: 1.28300 (Simulation time: 0 hr 4 min 41 sec) 
Heartbeat CPU  0 instructions:   96000000 cycles:   74825832 heartbeat IPC: 1.28136 cumulative IPC: 1.28298 (Simulation time: 0 hr 4 min 44 sec) 
Heartbeat CPU  0 instructions:   97000002 cycles:   75607144 heartbeat IPC: 1.27990 cumulative IPC: 1.28295 (Simulation time: 0 hr 4 min 47 sec) 
Heartbeat CPU  0 instructions:   98000001 cycles:   76386445 heartbeat IPC: 1.28320 cumulative IPC: 1.28295 (Simulation time: 0 hr 4 min 50 sec) 
Heartbeat CPU  0 instructions:   99000003 cycles:   77165521 heartbeat IPC: 1.28357 cumulative IPC: 1.28296 (Simulation time: 0 hr 4 min 53 sec) 
Heartbeat CPU  0 instructions:  100000000 cycles:   77944349 heartbeat IPC: 1.28398 cumulative IPC: 1.28297 (Simulation time: 0 hr 4 min 56 sec) 

Warmup complete CPU  0 instructions:  100000001 cycles:   77944350 (Simulation time: 0 hr 4 min 56 sec) 

Heartbeat CPU  0 instructions:  101000003 cycles:   79902377 heartbeat IPC: 0.51072 cumulative IPC: 0.51072 (Simulation time: 0 hr 5 min 0 sec) 
Heartbeat CPU  0 instructions:  102000000 cycles:   81933961 heartbeat IPC: 0.49223 cumulative IPC: 0.50130 (Simulation time: 0 hr 5 min 4 sec) 
Heartbeat CPU  0 instructions:  103000002 cycles:   83868108 heartbeat IPC: 0.51702 cumulative IPC: 0.50644 (Simulation time: 0 hr 5 min 7 sec) 
Heartbeat CPU  0 instructions:  104000000 cycles:   85756051 heartbeat IPC: 0.52968 cumulative IPC: 0.51205 (Simulation time: 0 hr 5 min 11 sec) 
Heartbeat CPU  0 instructions:  105000003 cycles:   87663705 heartbeat IPC: 0.52421 cumulative IPC: 0.51444 (Simulation time: 0 hr 5 min 15 sec) 
Heartbeat CPU  0 instructions:  106000002 cycles:   89533471 heartbeat IPC: 0.53483 cumulative IPC: 0.51773 (Simulation time: 0 hr 5 min 19 sec) 
Heartbeat CPU  0 instructions:  107000000 cycles:   91383960 heartbeat IPC: 0.54040 cumulative IPC: 0.52085 (Simulation time: 0 hr 5 min 23 sec) 
Heartbeat CPU  0 instructions:  108000000 cycles:   93242342 heartbeat IPC: 0.53810 cumulative IPC: 0.52294 (Simulation time: 0 hr 5 min 27 sec) 
Heartbeat CPU  0 instructions:  109000003 cycles:   95098535 heartbeat IPC: 0.53874 cumulative IPC: 0.52465 (Simulation time: 0 hr 5 min 31 sec) 
Heartbeat CPU  0 instructions:  110000001 cycles:   96976164 heartbeat IPC: 0.53259 cumulative IPC: 0.52544 (Simulation time: 0 hr 5 min 35 sec) 
Heartbeat CPU  0 instructions:  111000000 cycles:   98900978 heartbeat IPC: 0.51953 cumulative IPC: 0.52489 (Simulation time: 0 hr 5 min 39 sec) 
Heartbeat CPU  0 instructions:  112000000 cycles:  100887322 heartbeat IPC: 0.50344 cumulative IPC: 0.52304 (Simulation time: 0 hr 5 min 43 sec) 
Heartbeat CPU  0 instructions:  113000000 cycles:  102815516 heartbeat IPC: 0.51862 cumulative IPC: 0.52269 (Simulation time: 0 hr 5 min 47 sec) 
Heartbeat CPU  0 instructions:  114000002 cycles:  104699041 heartbeat IPC: 0.53092 cumulative IPC: 0.52327 (Simulation time: 0 hr 5 min 50 sec) 
Heartbeat CPU  0 instructions:  115000000 cycles:  106591042 heartbeat IPC: 0.52854 cumulative IPC: 0.52362 (Simulation time: 0 hr 5 min 54 sec) 
Heartbeat CPU  0 instructions:  116000000 cycles:  108421204 heartbeat IPC: 0.54640 cumulative IPC: 0.52499 (Simulation time: 0 hr 5 min 58 sec) 
Heartbeat CPU  0 instructions:  117000000 cycles:  110230581 heartbeat IPC: 0.55268 cumulative IPC: 0.52654 (Simulation time: 0 hr 6 min 2 sec) 
Heartbeat CPU  0 instructions:  118000003 cycles:  112049547 heartbeat IPC: 0.54976 cumulative IPC: 0.52778 (Simulation time: 0 hr 6 min 6 sec) 
Heartbeat CPU  0 instructions:  119000001 cycles:  113875343 heartbeat IPC: 0.54771 cumulative IPC: 0.52879 (Simulation time: 0 hr 6 min 10 sec) 
Heartbeat CPU  0 instructions:  120000000 cycles:  115701189 heartbeat IPC: 0.54769 cumulative IPC: 0.52971 (Simulation time: 0 hr 6 min 14 sec) 
Heartbeat CPU  0 instructions:  121000000 cycles:  117559734 heartbeat IPC: 0.53806 cumulative IPC: 0.53010 (Simulation time: 0 hr 6 min 18 sec) 
Heartbeat CPU  0 instructions:  122000002 cycles:  119447283 heartbeat IPC: 0.52979 cumulative IPC: 0.53008 (Simulation time: 0 hr 6 min 22 sec) 
Heartbeat CPU  0 instructions:  123000000 cycles:  121412727 heartbeat IPC: 0.50879 cumulative IPC: 0.52912 (Simulation time: 0 hr 6 min 26 sec) 
Heartbeat CPU  0 instructions:  124000000 cycles:  123376047 heartbeat IPC: 0.50934 cumulative IPC: 0.52827 (Simulation time: 0 hr 6 min 30 sec) 
Heartbeat CPU  0 instructions:  125000002 cycles:  125248188 heartbeat IPC: 0.53415 cumulative IPC: 0.52850 (Simulation time: 0 hr 6 min 34 sec) 
Heartbeat CPU  0 instructions:  126000000 cycles:  127120968 heartbeat IPC: 0.53396 cumulative IPC: 0.52871 (Simulation time: 0 hr 6 min 38 sec) 
Heartbeat CPU  0 instructions:  127000002 cycles:  128955708 heartbeat IPC: 0.54504 cumulative IPC: 0.52929 (Simulation time: 0 hr 6 min 41 sec) 
Heartbeat CPU  0 instructions:  128000000 cycles:  130808249 heartbeat IPC: 0.53980 cumulative IPC: 0.52966 (Simulation time: 0 hr 6 min 45 sec) 
Heartbeat CPU  0 instructions:  129000001 cycles:  132651572 heartbeat IPC: 0.54250 cumulative IPC: 0.53009 (Simulation time: 0 hr 6 min 49 sec) 
Heartbeat CPU  0 instructions:  130000003 cycles:  134505622 heartbeat IPC: 0.53936 cumulative IPC: 0.53040 (Simulation time: 0 hr 6 min 53 sec) 
Heartbeat CPU  0 instructions:  131000003 cycles:  136408839 heartbeat IPC: 0.52543 cumulative IPC: 0.53024 (Simulation time: 0 hr 6 min 57 sec) 
Heartbeat CPU  0 instructions:  132000000 cycles:  138331958 heartbeat IPC: 0.51999 cumulative IPC: 0.52991 (Simulation time: 0 hr 7 min 1 sec) 
Heartbeat CPU  0 instructions:  133000000 cycles:  140272396 heartbeat IPC: 0.51535 cumulative IPC: 0.52946 (Simulation time: 0 hr 7 min 5 sec) 
Heartbeat CPU  0 instructions:  134000002 cycles:  142388619 heartbeat IPC: 0.47254 cumulative IPC: 0.52759 (Simulation time: 0 hr 7 min 9 sec) 
Heartbeat CPU  0 instructions:  135000002 cycles:  143975889 heartbeat IPC: 0.63001 cumulative IPC: 0.53005 (Simulation time: 0 hr 7 min 12 sec) 
Heartbeat CPU  0 instructions:  136000000 cycles:  145643004 heartbeat IPC: 0.59984 cumulative IPC: 0.53177 (Simulation time: 0 hr 7 min 16 sec) 
Heartbeat CPU  0 instructions:  137000002 cycles:  147675522 heartbeat IPC: 0.49200 cumulative IPC: 0.53061 (Simulation time: 0 hr 7 min 20 sec) 
Heartbeat CPU  0 instructions:  138000003 cycles:  149367748 heartbeat IPC: 0.59094 cumulative IPC: 0.53204 (Simulation time: 0 hr 7 min 24 sec) 
Heartbeat CPU  0 instructions:  139000001 cycles:  151018260 heartbeat IPC: 0.60587 cumulative IPC: 0.53371 (Simulation time: 0 hr 7 min 27 sec) 
Heartbeat CPU  0 instructions:  140000000 cycles:  152805620 heartbeat IPC: 0.55948 cumulative IPC: 0.53432 (Simulation time: 0 hr 7 min 31 sec) 
Heartbeat CPU  0 instructions:  141000003 cycles:  154176837 heartbeat IPC: 0.72928 cumulative IPC: 0.53783 (Simulation time: 0 hr 7 min 34 sec) 
Heartbeat CPU  0 instructions:  142000003 cycles:  155534559 heartbeat IPC: 0.73653 cumulative IPC: 0.54131 (Simulation time: 0 hr 7 min 37 sec) 
Heartbeat CPU  0 instructions:  143000000 cycles:  157467436 heartbeat IPC: 0.51736 cumulative IPC: 0.54072 (Simulation time: 0 hr 7 min 41 sec) 
Heartbeat CPU  0 instructions:  144000000 cycles:  159298305 heartbeat IPC: 0.54619 cumulative IPC: 0.54085 (Simulation time: 0 hr 7 min 45 sec) 
Heartbeat CPU  0 instructions:  145000002 cycles:  161105010 heartbeat IPC: 0.55349 cumulative IPC: 0.54112 (Simulation time: 0 hr 7 min 49 sec) 
Heartbeat CPU  0 instructions:  146000000 cycles:  162964742 heartbeat IPC: 0.53771 cumulative IPC: 0.54105 (Simulation time: 0 hr 7 min 53 sec) 
Heartbeat CPU  0 instructions:  147000002 cycles:  164802231 heartbeat IPC: 0.54422 cumulative IPC: 0.54111 (Simulation time: 0 hr 7 min 57 sec) 
Heartbeat CPU  0 instructions:  148000000 cycles:  166617264 heartbeat IPC: 0.55095 cumulative IPC: 0.54132 (Simulation time: 0 hr 8 min 1 sec) 
Heartbeat CPU  0 instructions:  149000001 cycles:  168403178 heartbeat IPC: 0.55994 cumulative IPC: 0.54168 (Simulation time: 0 hr 8 min 5 sec) 
Heartbeat CPU  0 instructions:  150000003 cycles:  170197587 heartbeat IPC: 0.55729 cumulative IPC: 0.54199 (Simulation time: 0 hr 8 min 8 sec) 
Heartbeat CPU  0 instructions:  151000001 cycles:  172013210 heartbeat IPC: 0.55077 cumulative IPC: 0.54216 (Simulation time: 0 hr 8 min 12 sec) 
Heartbeat CPU  0 instructions:  152000000 cycles:  173836711 heartbeat IPC: 0.54840 cumulative IPC: 0.54227 (Simulation time: 0 hr 8 min 16 sec) 
Heartbeat CPU  0 instructions:  153000002 cycles:  175609883 heartbeat IPC: 0.56396 cumulative IPC: 0.54267 (Simulation time: 0 hr 8 min 20 sec) 
Heartbeat CPU  0 instructions:  154000000 cycles:  177400831 heartbeat IPC: 0.55836 cumulative IPC: 0.54295 (Simulation time: 0 hr 8 min 24 sec) 
Heartbeat CPU  0 instructions:  155000000 cycles:  179273488 heartbeat IPC: 0.53400 cumulative IPC: 0.54279 (Simulation time: 0 hr 8 min 28 sec) 
Heartbeat CPU  0 instructions:  156000000 cycles:  181148392 heartbeat IPC: 0.53336 cumulative IPC: 0.54261 (Simulation time: 0 hr 8 min 32 sec) 
Heartbeat CPU  0 instructions:  157000001 cycles:  183044926 heartbeat IPC: 0.52728 cumulative IPC: 0.54234 (Simulation time: 0 hr 8 min 35 sec) 
Heartbeat CPU  0 instructions:  158000003 cycles:  184955242 heartbeat IPC: 0.52347 cumulative IPC: 0.54200 (Simulation time: 0 hr 8 min 39 sec) 
Heartbeat CPU  0 instructions:  159000002 cycles:  186811707 heartbeat IPC: 0.53866 cumulative IPC: 0.54194 (Simulation time: 0 hr 8 min 43 sec) 
Heartbeat CPU  0 instructions:  160000000 cycles:  188641589 heartbeat IPC: 0.54648 cumulative IPC: 0.54202 (Simulation time: 0 hr 8 min 47 sec) 
Heartbeat CPU  0 instructions:  161000003 cycles:  190513985 heartbeat IPC: 0.53408 cumulative IPC: 0.54189 (Simulation time: 0 hr 8 min 51 sec) 
Heartbeat CPU  0 instructions:  162000003 cycles:  192334026 heartbeat IPC: 0.54944 cumulative IPC: 0.54201 (Simulation time: 0 hr 8 min 55 sec) 
Heartbeat CPU  0 instructions:  163000001 cycles:  194149773 heartbeat IPC: 0.55074 cumulative IPC: 0.54214 (Simulation time: 0 hr 8 min 59 sec) 
Heartbeat CPU  0 instructions:  164000000 cycles:  195978122 heartbeat IPC: 0.54694 cumulative IPC: 0.54222 (Simulation time: 0 hr 9 min 3 sec) 
Heartbeat CPU  0 instructions:  165000000 cycles:  197805484 heartbeat IPC: 0.54724 cumulative IPC: 0.54229 (Simulation time: 0 hr 9 min 7 sec) 
Heartbeat CPU  0 instructions:  166000000 cycles:  199700109 heartbeat IPC: 0.52781 cumulative IPC: 0.54207 (Simulation time: 0 hr 9 min 11 sec) 
Heartbeat CPU  0 instructions:  167000002 cycles:  201598787 heartbeat IPC: 0.52668 cumulative IPC: 0.54183 (Simulation time: 0 hr 9 min 15 sec) 
Heartbeat CPU  0 instructions:  168000000 cycles:  203551113 heartbeat IPC: 0.51221 cumulative IPC: 0.54137 (Simulation time: 0 hr 9 min 19 sec) 
Heartbeat CPU  0 instructions:  169000001 cycles:  205459543 heartbeat IPC: 0.52399 cumulative IPC: 0.54111 (Simulation time: 0 hr 9 min 23 sec) 
Heartbeat CPU  0 instructions:  170000003 cycles:  207412437 heartbeat IPC: 0.51206 cumulative IPC: 0.54067 (Simulation time: 0 hr 9 min 27 sec) 
Heartbeat CPU  0 instructions:  171000002 cycles:  209218732 heartbeat IPC: 0.55362 cumulative IPC: 0.54085 (Simulation time: 0 hr 9 min 30 sec) 
Heartbeat CPU  0 instructions:  172000000 cycles:  211058691 heartbeat IPC: 0.54349 cumulative IPC: 0.54089 (Simulation time: 0 hr 9 min 34 sec) 
Heartbeat CPU  0 instructions:  173000002 cycles:  212888397 heartbeat IPC: 0.54654 cumulative IPC: 0.54096 (Simulation time: 0 hr 9 min 38 sec) 
Heartbeat CPU  0 instructions:  174000000 cycles:  214680245 heartbeat IPC: 0.55808 cumulative IPC: 0.54119 (Simulation time: 0 hr 9 min 42 sec) 
Heartbeat CPU  0 instructions:  175000001 cycles:  216460674 heartbeat IPC: 0.56166 cumulative IPC: 0.54145 (Simulation time: 0 hr 9 min 46 sec) 
Heartbeat CPU  0 instructions:  176000000 cycles:  218263953 heartbeat IPC: 0.55454 cumulative IPC: 0.54162 (Simulation time: 0 hr 9 min 50 sec) 
Heartbeat CPU  0 instructions:  177000001 cycles:  220150542 heartbeat IPC: 0.53006 cumulative IPC: 0.54147 (Simulation time: 0 hr 9 min 54 sec) 
Heartbeat CPU  0 instructions:  178000000 cycles:  222058039 heartbeat IPC: 0.52425 cumulative IPC: 0.54124 (Simulation time: 0 hr 9 min 58 sec) 
Heartbeat CPU  0 instructions:  179000002 cycles:  224045142 heartbeat IPC: 0.50325 cumulative IPC: 0.54072 (Simulation time: 0 hr 10 min 2 sec) 
Heartbeat CPU  0 instructions:  180000000 cycles:  225934517 heartbeat IPC: 0.52927 cumulative IPC: 0.54058 (Simulation time: 0 hr 10 min 6 sec) 
Heartbeat CPU  0 instructions:  181000002 cycles:  227805522 heartbeat IPC: 0.53447 cumulative IPC: 0.54050 (Simulation time: 0 hr 10 min 10 sec) 
Heartbeat CPU  0 instructions:  182000003 cycles:  229631454 heartbeat IPC: 0.54767 cumulative IPC: 0.54059 (Simulation time: 0 hr 10 min 13 sec) 
Heartbeat CPU  0 instructions:  183000001 cycles:  231426737 heartbeat IPC: 0.55701 cumulative IPC: 0.54078 (Simulation time: 0 hr 10 min 17 sec) 
Heartbeat CPU  0 instructions:  184000000 cycles:  233263924 heartbeat IPC: 0.54431 cumulative IPC: 0.54082 (Simulation time: 0 hr 10 min 21 sec) 
Heartbeat CPU  0 instructions:  185000003 cycles:  235114128 heartbeat IPC: 0.54048 cumulative IPC: 0.54082 (Simulation time: 0 hr 10 min 25 sec) 
Heartbeat CPU  0 instructions:  186000000 cycles:  236901654 heartbeat IPC: 0.55943 cumulative IPC: 0.54103 (Simulation time: 0 hr 10 min 29 sec) 
Heartbeat CPU  0 instructions:  187000000 cycles:  238723369 heartbeat IPC: 0.54893 cumulative IPC: 0.54112 (Simulation time: 0 hr 10 min 33 sec) 
Heartbeat CPU  0 instructions:  188000000 cycles:  240683159 heartbeat IPC: 0.51026 cumulative IPC: 0.54074 (Simulation time: 0 hr 10 min 37 sec) 
Heartbeat CPU  0 instructions:  189000001 cycles:  242616250 heartbeat IPC: 0.51731 cumulative IPC: 0.54047 (Simulation time: 0 hr 10 min 41 sec) 
Heartbeat CPU  0 instructions:  190000003 cycles:  244558443 heartbeat IPC: 0.51488 cumulative IPC: 0.54017 (Simulation time: 0 hr 10 min 45 sec) 
Heartbeat CPU  0 instructions:  191000002 cycles:  246450559 heartbeat IPC: 0.52851 cumulative IPC: 0.54004 (Simulation time: 0 hr 10 min 48 sec) 
Heartbeat CPU  0 instructions:  192000000 cycles:  248324606 heartbeat IPC: 0.53360 cumulative IPC: 0.53997 (Simulation time: 0 hr 10 min 52 sec) 
Heartbeat CPU  0 instructions:  193000002 cycles:  250163819 heartbeat IPC: 0.54371 cumulative IPC: 0.54001 (Simulation time: 0 hr 10 min 56 sec) 
Heartbeat CPU  0 instructions:  194000003 cycles:  252001209 heartbeat IPC: 0.54425 cumulative IPC: 0.54005 (Simulation time: 0 hr 11 min 0 sec) 
Heartbeat CPU  0 instructions:  195000001 cycles:  253783222 heartbeat IPC: 0.56116 cumulative IPC: 0.54027 (Simulation time: 0 hr 11 min 4 sec) 
Heartbeat CPU  0 instructions:  196000000 cycles:  255615696 heartbeat IPC: 0.54571 cumulative IPC: 0.54032 (Simulation time: 0 hr 11 min 8 sec) 
Heartbeat CPU  0 instructions:  197000001 cycles:  257498574 heartbeat IPC: 0.53110 cumulative IPC: 0.54023 (Simulation time: 0 hr 11 min 12 sec) 
Heartbeat CPU  0 instructions:  198000000 cycles:  259363412 heartbeat IPC: 0.53624 cumulative IPC: 0.54019 (Simulation time: 0 hr 11 min 16 sec) 
Heartbeat CPU  0 instructions:  199000002 cycles:  261261148 heartbeat IPC: 0.52694 cumulative IPC: 0.54005 (Simulation time: 0 hr 11 min 20 sec) 
Heartbeat CPU  0 instructions:  200000000 cycles:  263161350 heartbeat IPC: 0.52626 cumulative IPC: 0.53991 (Simulation time: 0 hr 11 min 24 sec) 
Heartbeat CPU  0 instructions:  201000001 cycles:  265171502 heartbeat IPC: 0.49748 cumulative IPC: 0.53945 (Simulation time: 0 hr 11 min 28 sec) 
Heartbeat CPU  0 instructions:  202000003 cycles:  267046869 heartbeat IPC: 0.53323 cumulative IPC: 0.53939 (Simulation time: 0 hr 11 min 32 sec) 
Heartbeat CPU  0 instructions:  203000001 cycles:  268873230 heartbeat IPC: 0.54754 cumulative IPC: 0.53947 (Simulation time: 0 hr 11 min 36 sec) 
Heartbeat CPU  0 instructions:  204000000 cycles:  270688827 heartbeat IPC: 0.55078 cumulative IPC: 0.53957 (Simulation time: 0 hr 11 min 39 sec) 
Heartbeat CPU  0 instructions:  205000001 cycles:  272469391 heartbeat IPC: 0.56162 cumulative IPC: 0.53978 (Simulation time: 0 hr 11 min 43 sec) 
Heartbeat CPU  0 instructions:  206000000 cycles:  274331082 heartbeat IPC: 0.53715 cumulative IPC: 0.53975 (Simulation time: 0 hr 11 min 47 sec) 
Heartbeat CPU  0 instructions:  207000001 cycles:  276173766 heartbeat IPC: 0.54269 cumulative IPC: 0.53978 (Simulation time: 0 hr 11 min 51 sec) 
Heartbeat CPU  0 instructions:  208000000 cycles:  277989162 heartbeat IPC: 0.55084 cumulative IPC: 0.53988 (Simulation time: 0 hr 11 min 55 sec) 
Heartbeat CPU  0 instructions:  209000001 cycles:  279849326 heartbeat IPC: 0.53759 cumulative IPC: 0.53986 (Simulation time: 0 hr 11 min 58 sec) 
Heartbeat CPU  0 instructions:  210000000 cycles:  281780791 heartbeat IPC: 0.51774 cumulative IPC: 0.53965 (Simulation time: 0 hr 12 min 2 sec) 
Heartbeat CPU  0 instructions:  211000002 cycles:  283764886 heartbeat IPC: 0.50401 cumulative IPC: 0.53930 (Simulation time: 0 hr 12 min 6 sec) 
Heartbeat CPU  0 instructions:  212000000 cycles:  285714173 heartbeat IPC: 0.51301 cumulative IPC: 0.53906 (Simulation time: 0 hr 12 min 10 sec) 
Heartbeat CPU  0 instructions:  213000000 cycles:  287558254 heartbeat IPC: 0.54228 cumulative IPC: 0.53909 (Simulation time: 0 hr 12 min 14 sec) 
Heartbeat CPU  0 instructions:  214000003 cycles:  289427992 heartbeat IPC: 0.53484 cumulative IPC: 0.53905 (Simulation time: 0 hr 12 min 18 sec) 
Heartbeat CPU  0 instructions:  215000001 cycles:  291270992 heartbeat IPC: 0.54259 cumulative IPC: 0.53908 (Simulation time: 0 hr 12 min 22 sec) 
Heartbeat CPU  0 instructions:  216000000 cycles:  293076092 heartbeat IPC: 0.55399 cumulative IPC: 0.53920 (Simulation time: 0 hr 12 min 26 sec) 
Heartbeat CPU  0 instructions:  217000003 cycles:  294888360 heartbeat IPC: 0.55180 cumulative IPC: 0.53931 (Simulation time: 0 hr 12 min 30 sec) 
Heartbeat CPU  0 instructions:  218000000 cycles:  296749988 heartbeat IPC: 0.53716 cumulative IPC: 0.53929 (Simulation time: 0 hr 12 min 34 sec) 
Heartbeat CPU  0 instructions:  219000002 cycles:  298563071 heartbeat IPC: 0.55155 cumulative IPC: 0.53939 (Simulation time: 0 hr 12 min 38 sec) 
Heartbeat CPU  0 instructions:  220000000 cycles:  300440899 heartbeat IPC: 0.53253 cumulative IPC: 0.53933 (Simulation time: 0 hr 12 min 42 sec) 
Heartbeat CPU  0 instructions:  221000001 cycles:  302434372 heartbeat IPC: 0.50164 cumulative IPC: 0.53900 (Simulation time: 0 hr 12 min 46 sec) 
Heartbeat CPU  0 instructions:  222000003 cycles:  304425903 heartbeat IPC: 0.50213 cumulative IPC: 0.53868 (Simulation time: 0 hr 12 min 50 sec) 
Heartbeat CPU  0 instructions:  223000001 cycles:  306335804 heartbeat IPC: 0.52359 cumulative IPC: 0.53855 (Simulation time: 0 hr 12 min 54 sec) 
Heartbeat CPU  0 instructions:  224000000 cycles:  308222860 heartbeat IPC: 0.52993 cumulative IPC: 0.53848 (Simulation time: 0 hr 12 min 58 sec) 
Heartbeat CPU  0 instructions:  225000002 cycles:  310062488 heartbeat IPC: 0.54359 cumulative IPC: 0.53852 (Simulation time: 0 hr 13 min 2 sec) 
Heartbeat CPU  0 instructions:  226000000 cycles:  311925194 heartbeat IPC: 0.53685 cumulative IPC: 0.53851 (Simulation time: 0 hr 13 min 5 sec) 
Heartbeat CPU  0 instructions:  227000001 cycles:  313745116 heartbeat IPC: 0.54947 cumulative IPC: 0.53859 (Simulation time: 0 hr 13 min 9 sec) 
Heartbeat CPU  0 instructions:  228000000 cycles:  315578226 heartbeat IPC: 0.54552 cumulative IPC: 0.53864 (Simulation time: 0 hr 13 min 13 sec) 
Heartbeat CPU  0 instructions:  229000001 cycles:  317427552 heartbeat IPC: 0.54074 cumulative IPC: 0.53866 (Simulation time: 0 hr 13 min 17 sec) 
Heartbeat CPU  0 instructions:  230000002 cycles:  319248266 heartbeat IPC: 0.54924 cumulative IPC: 0.53874 (Simulation time: 0 hr 13 min 21 sec) 
Heartbeat CPU  0 instructions:  231000003 cycles:  321110099 heartbeat IPC: 0.53711 cumulative IPC: 0.53873 (Simulation time: 0 hr 13 min 25 sec) 
Heartbeat CPU  0 instructions:  232000000 cycles:  323043390 heartbeat IPC: 0.51725 cumulative IPC: 0.53856 (Simulation time: 0 hr 13 min 29 sec) 
Heartbeat CPU  0 instructions:  233000001 cycles:  325022098 heartbeat IPC: 0.50538 cumulative IPC: 0.53829 (Simulation time: 0 hr 13 min 33 sec) 
Heartbeat CPU  0 instructions:  234000003 cycles:  326939825 heartbeat IPC: 0.52145 cumulative IPC: 0.53816 (Simulation time: 0 hr 13 min 37 sec) 
Heartbeat CPU  0 instructions:  235000001 cycles:  328746131 heartbeat IPC: 0.55361 cumulative IPC: 0.53827 (Simulation time: 0 hr 13 min 41 sec) 
Heartbeat CPU  0 instructions:  236000000 cycles:  330564777 heartbeat IPC: 0.54986 cumulative IPC: 0.53836 (Simulation time: 0 hr 13 min 44 sec) 
Heartbeat CPU  0 instructions:  237000001 cycles:  332385733 heartbeat IPC: 0.54916 cumulative IPC: 0.53843 (Simulation time: 0 hr 13 min 48 sec) 
Heartbeat CPU  0 instructions:  238000002 cycles:  334200556 heartbeat IPC: 0.55102 cumulative IPC: 0.53852 (Simulation time: 0 hr 13 min 52 sec) 
Heartbeat CPU  0 instructions:  239000002 cycles:  336000478 heartbeat IPC: 0.55558 cumulative IPC: 0.53864 (Simulation time: 0 hr 13 min 56 sec) 
Heartbeat CPU  0 instructions:  240000000 cycles:  337838990 heartbeat IPC: 0.54392 cumulative IPC: 0.53868 (Simulation time: 0 hr 14 min 0 sec) 
Heartbeat CPU  0 instructions:  241000001 cycles:  339663693 heartbeat IPC: 0.54803 cumulative IPC: 0.53875 (Simulation time: 0 hr 14 min 4 sec) 
Heartbeat CPU  0 instructions:  242000000 cycles:  341575167 heartbeat IPC: 0.52316 cumulative IPC: 0.53863 (Simulation time: 0 hr 14 min 8 sec) 
Heartbeat CPU  0 instructions:  243000002 cycles:  343495328 heartbeat IPC: 0.52079 cumulative IPC: 0.53850 (Simulation time: 0 hr 14 min 12 sec) 
Heartbeat CPU  0 instructions:  244000000 cycles:  345456151 heartbeat IPC: 0.50999 cumulative IPC: 0.53829 (Simulation time: 0 hr 14 min 16 sec) 
Heartbeat CPU  0 instructions:  245000000 cycles:  347351967 heartbeat IPC: 0.52748 cumulative IPC: 0.53822 (Simulation time: 0 hr 14 min 20 sec) 
Heartbeat CPU  0 instructions:  246000003 cycles:  349216073 heartbeat IPC: 0.53645 cumulative IPC: 0.53821 (Simulation time: 0 hr 14 min 24 sec) 
Heartbeat CPU  0 instructions:  247000001 cycles:  351056058 heartbeat IPC: 0.54348 cumulative IPC: 0.53824 (Simulation time: 0 hr 14 min 27 sec) 
Heartbeat CPU  0 instructions:  248000000 cycles:  352855207 heartbeat IPC: 0.55582 cumulative IPC: 0.53836 (Simulation time: 0 hr 14 min 31 sec) 
Heartbeat CPU  0 instructions:  249000001 cycles:  354692512 heartbeat IPC: 0.54428 cumulative IPC: 0.53840 (Simulation time: 0 hr 14 min 35 sec) 
Heartbeat CPU  0 instructions:  250000001 cycles:  356510569 heartbeat IPC: 0.55004 cumulative IPC: 0.53847 (Simulation time: 0 hr 14 min 39 sec) 
Heartbeat CPU  0 instructions:  251000001 cycles:  360594240 heartbeat IPC: 0.24488 cumulative IPC: 0.53423 (Simulation time: 0 hr 14 min 43 sec) 
Heartbeat CPU  0 instructions:  252000000 cycles:  362316504 heartbeat IPC: 0.58063 cumulative IPC: 0.53451 (Simulation time: 0 hr 14 min 47 sec) 
Heartbeat CPU  0 instructions:  253000000 cycles:  363881744 heartbeat IPC: 0.63888 cumulative IPC: 0.53508 (Simulation time: 0 hr 14 min 50 sec) 
Heartbeat CPU  0 instructions:  254000003 cycles:  365342995 heartbeat IPC: 0.68435 cumulative IPC: 0.53584 (Simulation time: 0 hr 14 min 52 sec) 
Heartbeat CPU  0 instructions:  255000002 cycles:  366797914 heartbeat IPC: 0.68732 cumulative IPC: 0.53660 (Simulation time: 0 hr 14 min 55 sec) 
Heartbeat CPU  0 instructions:  256000000 cycles:  376967633 heartbeat IPC: 0.09833 cumulative IPC: 0.52170 (Simulation time: 0 hr 15 min 3 sec) 
Heartbeat CPU  0 instructions:  257000000 cycles:  378680404 heartbeat IPC: 0.58385 cumulative IPC: 0.52205 (Simulation time: 0 hr 15 min 6 sec) 
Heartbeat CPU  0 instructions:  258000001 cycles:  380228961 heartbeat IPC: 0.64576 cumulative IPC: 0.52269 (Simulation time: 0 hr 15 min 9 sec) 
Heartbeat CPU  0 instructions:  259000002 cycles:  381684383 heartbeat IPC: 0.68709 cumulative IPC: 0.52347 (Simulation time: 0 hr 15 min 12 sec) 
Heartbeat CPU  0 instructions:  260000000 cycles:  383138836 heartbeat IPC: 0.68754 cumulative IPC: 0.52426 (Simulation time: 0 hr 15 min 14 sec) 
Heartbeat CPU  0 instructions:  261000000 cycles:  392700820 heartbeat IPC: 0.10458 cumulative IPC: 0.51151 (Simulation time: 0 hr 15 min 22 sec) 
Heartbeat CPU  0 instructions:  262000003 cycles:  394415736 heartbeat IPC: 0.58312 cumulative IPC: 0.51189 (Simulation time: 0 hr 15 min 25 sec) 
Heartbeat CPU  0 instructions:  263000001 cycles:  395975745 heartbeat IPC: 0.64102 cumulative IPC: 0.51253 (Simulation time: 0 hr 15 min 28 sec) 
Heartbeat CPU  0 instructions:  264000000 cycles:  397429653 heartbeat IPC: 0.68780 cumulative IPC: 0.51333 (Simulation time: 0 hr 15 min 31 sec) 
Heartbeat CPU  0 instructions:  265000001 cycles:  398883568 heartbeat IPC: 0.68780 cumulative IPC: 0.51412 (Simulation time: 0 hr 15 min 34 sec) 
Heartbeat CPU  0 instructions:  266000001 cycles:  408420049 heartbeat IPC: 0.10486 cumulative IPC: 0.50231 (Simulation time: 0 hr 15 min 42 sec) 
Heartbeat CPU  0 instructions:  267000003 cycles:  410106086 heartbeat IPC: 0.59311 cumulative IPC: 0.50277 (Simulation time: 0 hr 15 min 45 sec) 
Heartbeat CPU  0 instructions:  268000000 cycles:  411668040 heartbeat IPC: 0.64022 cumulative IPC: 0.50341 (Simulation time: 0 hr 15 min 48 sec) 
Heartbeat CPU  0 instructions:  269000002 cycles:  413119198 heartbeat IPC: 0.68911 cumulative IPC: 0.50421 (Simulation time: 0 hr 15 min 52 sec) 
Heartbeat CPU  0 instructions:  270000003 cycles:  414570291 heartbeat IPC: 0.68914 cumulative IPC: 0.50501 (Simulation time: 0 hr 15 min 55 sec) 
Heartbeat CPU  0 instructions:  271000000 cycles:  424715393 heartbeat IPC: 0.09857 cumulative IPC: 0.49312 (Simulation time: 0 hr 16 min 3 sec) 
Heartbeat CPU  0 instructions:  272000000 cycles:  426406797 heartbeat IPC: 0.59122 cumulative IPC: 0.49360 (Simulation time: 0 hr 16 min 6 sec) 
Heartbeat CPU  0 instructions:  273000000 cycles:  427972320 heartbeat IPC: 0.63876 cumulative IPC: 0.49425 (Simulation time: 0 hr 16 min 9 sec) 
Heartbeat CPU  0 instructions:  274000001 cycles:  429425339 heartbeat IPC: 0.68822 cumulative IPC: 0.49505 (Simulation time: 0 hr 16 min 12 sec) 
Heartbeat CPU  0 instructions:  275000000 cycles:  430877228 heartbeat IPC: 0.68876 cumulative IPC: 0.49584 (Simulation time: 0 hr 16 min 15 sec) 
Heartbeat CPU  0 instructions:  276000000 cycles:  433654611 heartbeat IPC: 0.36005 cumulative IPC: 0.49478 (Simulation time: 0 hr 16 min 19 sec) 
Heartbeat CPU  0 instructions:  277000000 cycles:  435311216 heartbeat IPC: 0.60364 cumulative IPC: 0.49529 (Simulation time: 0 hr 16 min 22 sec) 
Heartbeat CPU  0 instructions:  278000000 cycles:  436877570 heartbeat IPC: 0.63843 cumulative IPC: 0.49591 (Simulation time: 0 hr 16 min 25 sec) 
Heartbeat CPU  0 instructions:  279000000 cycles:  438329022 heartbeat IPC: 0.68897 cumulative IPC: 0.49669 (Simulation time: 0 hr 16 min 28 sec) 
Heartbeat CPU  0 instructions:  280000000 cycles:  439780138 heartbeat IPC: 0.68912 cumulative IPC: 0.49746 (Simulation time: 0 hr 16 min 31 sec) 
Heartbeat CPU  0 instructions:  281000000 cycles:  442360080 heartbeat IPC: 0.38761 cumulative IPC: 0.49669 (Simulation time: 0 hr 16 min 34 sec) 
Heartbeat CPU  0 instructions:  282000000 cycles:  444022344 heartbeat IPC: 0.60159 cumulative IPC: 0.49716 (Simulation time: 0 hr 16 min 38 sec) 
Heartbeat CPU  0 instructions:  283000001 cycles:  445592052 heartbeat IPC: 0.63706 cumulative IPC: 0.49776 (Simulation time: 0 hr 16 min 41 sec) 
Heartbeat CPU  0 instructions:  284000000 cycles:  447043657 heartbeat IPC: 0.68889 cumulative IPC: 0.49851 (Simulation time: 0 hr 16 min 43 sec) 
Heartbeat CPU  0 instructions:  285000000 cycles:  448495287 heartbeat IPC: 0.68888 cumulative IPC: 0.49926 (Simulation time: 0 hr 16 min 46 sec) 
Heartbeat CPU  0 instructions:  286000002 cycles:  450823335 heartbeat IPC: 0.42955 cumulative IPC: 0.49882 (Simulation time: 0 hr 16 min 49 sec) 
Heartbeat CPU  0 instructions:  287000000 cycles:  452493620 heartbeat IPC: 0.59870 cumulative IPC: 0.49927 (Simulation time: 0 hr 16 min 53 sec) 
Heartbeat CPU  0 instructions:  288000000 cycles:  454055317 heartbeat IPC: 0.64033 cumulative IPC: 0.49985 (Simulation time: 0 hr 16 min 56 sec) 
Heartbeat CPU  0 instructions:  289000001 cycles:  455508436 heartbeat IPC: 0.68818 cumulative IPC: 0.50058 (Simulation time: 0 hr 16 min 59 sec) 
Heartbeat CPU  0 instructions:  290000001 cycles:  456961538 heartbeat IPC: 0.68818 cumulative IPC: 0.50130 (Simulation time: 0 hr 17 min 2 sec) 
Heartbeat CPU  0 instructions:  291000001 cycles:  459219792 heartbeat IPC: 0.44282 cumulative IPC: 0.50095 (Simulation time: 0 hr 17 min 5 sec) 
Heartbeat CPU  0 instructions:  292000000 cycles:  460851382 heartbeat IPC: 0.61290 cumulative IPC: 0.50143 (Simulation time: 0 hr 17 min 8 sec) 
Heartbeat CPU  0 instructions:  293000001 cycles:  462564771 heartbeat IPC: 0.58364 cumulative IPC: 0.50179 (Simulation time: 0 hr 17 min 11 sec) 
Heartbeat CPU  0 instructions:  294000003 cycles:  464278133 heartbeat IPC: 0.58365 cumulative IPC: 0.50216 (Simulation time: 0 hr 17 min 15 sec) 
Heartbeat CPU  0 instructions:  295000003 cycles:  466506814 heartbeat IPC: 0.44870 cumulative IPC: 0.50185 (Simulation time: 0 hr 17 min 18 sec) 
Heartbeat CPU  0 instructions:  296000000 cycles:  468155192 heartbeat IPC: 0.60666 cumulative IPC: 0.50229 (Simulation time: 0 hr 17 min 21 sec) 
Heartbeat CPU  0 instructions:  297000001 cycles:  469871698 heartbeat IPC: 0.58258 cumulative IPC: 0.50264 (Simulation time: 0 hr 17 min 24 sec) 
Heartbeat CPU  0 instructions:  298000002 cycles:  471587978 heartbeat IPC: 0.58266 cumulative IPC: 0.50299 (Simulation time: 0 hr 17 min 27 sec) 
Heartbeat CPU  0 instructions:  299000002 cycles:  473515602 heartbeat IPC: 0.51877 cumulative IPC: 0.50307 (Simulation time: 0 hr 17 min 31 sec) 
Heartbeat CPU  0 instructions:  300000000 cycles:  475319298 heartbeat IPC: 0.55442 cumulative IPC: 0.50330 (Simulation time: 0 hr 17 min 34 sec) 
Heartbeat CPU  0 instructions:  301000000 cycles:  476770862 heartbeat IPC: 0.68891 cumulative IPC: 0.50398 (Simulation time: 0 hr 17 min 37 sec) 
Heartbeat CPU  0 instructions:  302000001 cycles:  478222260 heartbeat IPC: 0.68899 cumulative IPC: 0.50465 (Simulation time: 0 hr 17 min 40 sec) 
Heartbeat CPU  0 instructions:  303000000 cycles:  479673711 heartbeat IPC: 0.68897 cumulative IPC: 0.50532 (Simulation time: 0 hr 17 min 43 sec) 
Heartbeat CPU  0 instructions:  304000000 cycles:  481125077 heartbeat IPC: 0.68901 cumulative IPC: 0.50598 (Simulation time: 0 hr 17 min 46 sec) 
Heartbeat CPU  0 instructions:  305000003 cycles:  483362090 heartbeat IPC: 0.44703 cumulative IPC: 0.50565 (Simulation time: 0 hr 17 min 49 sec) 
Heartbeat CPU  0 instructions:  306000001 cycles:  484709059 heartbeat IPC: 0.74241 cumulative IPC: 0.50644 (Simulation time: 0 hr 17 min 51 sec) 
Heartbeat CPU  0 instructions:  307000001 cycles:  486162171 heartbeat IPC: 0.68818 cumulative IPC: 0.50708 (Simulation time: 0 hr 17 min 54 sec) 
Heartbeat CPU  0 instructions:  308000000 cycles:  487615277 heartbeat IPC: 0.68818 cumulative IPC: 0.50772 (Simulation time: 0 hr 17 min 57 sec) 
Heartbeat CPU  0 instructions:  309000003 cycles:  489068422 heartbeat IPC: 0.68816 cumulative IPC: 0.50836 (Simulation time: 0 hr 18 min 0 sec) 
Heartbeat CPU  0 instructions:  310000002 cycles:  490929975 heartbeat IPC: 0.53719 cumulative IPC: 0.50849 (Simulation time: 0 hr 18 min 3 sec) 
Heartbeat CPU  0 instructions:  311000000 cycles:  495758534 heartbeat IPC: 0.20710 cumulative IPC: 0.50501 (Simulation time: 0 hr 18 min 8 sec) 
Heartbeat CPU  0 instructions:  312000000 cycles:  498932655 heartbeat IPC: 0.31505 cumulative IPC: 0.50358 (Simulation time: 0 hr 18 min 13 sec) 
Heartbeat CPU  0 instructions:  313000002 cycles:  501874891 heartbeat IPC: 0.33988 cumulative IPC: 0.50244 (Simulation time: 0 hr 18 min 18 sec) 
Heartbeat CPU  0 instructions:  314000002 cycles:  504822110 heartbeat IPC: 0.33930 cumulative IPC: 0.50131 (Simulation time: 0 hr 18 min 22 sec) 
Heartbeat CPU  0 instructions:  315000001 cycles:  507745558 heartbeat IPC: 0.34206 cumulative IPC: 0.50023 (Simulation time: 0 hr 18 min 26 sec) 
Heartbeat CPU  0 instructions:  316000000 cycles:  510685357 heartbeat IPC: 0.34016 cumulative IPC: 0.49914 (Simulation time: 0 hr 18 min 31 sec) 
Heartbeat CPU  0 instructions:  317000002 cycles:  513619809 heartbeat IPC: 0.34078 cumulative IPC: 0.49808 (Simulation time: 0 hr 18 min 35 sec) 
Heartbeat CPU  0 instructions:  318000001 cycles:  516542032 heartbeat IPC: 0.34220 cumulative IPC: 0.49704 (Simulation time: 0 hr 18 min 40 sec) 
Heartbeat CPU  0 instructions:  319000003 cycles:  519477366 heartbeat IPC: 0.34068 cumulative IPC: 0.49600 (Simulation time: 0 hr 18 min 44 sec) 
Heartbeat CPU  0 instructions:  320000000 cycles:  522400073 heartbeat IPC: 0.34215 cumulative IPC: 0.49499 (Simulation time: 0 hr 18 min 48 sec) 
Heartbeat CPU  0 instructions:  321000001 cycles:  525326116 heartbeat IPC: 0.34176 cumulative IPC: 0.49399 (Simulation time: 0 hr 18 min 53 sec) 
Heartbeat CPU  0 instructions:  322000000 cycles:  528229845 heartbeat IPC: 0.34438 cumulative IPC: 0.49302 (Simulation time: 0 hr 18 min 57 sec) 
Heartbeat CPU  0 instructions:  323000001 cycles:  531329823 heartbeat IPC: 0.32258 cumulative IPC: 0.49186 (Simulation time: 0 hr 19 min 1 sec) 
Heartbeat CPU  0 instructions:  324000000 cycles:  534275893 heartbeat IPC: 0.33943 cumulative IPC: 0.49087 (Simulation time: 0 hr 19 min 6 sec) 
Heartbeat CPU  0 instructions:  325000003 cycles:  537211255 heartbeat IPC: 0.34067 cumulative IPC: 0.48991 (Simulation time: 0 hr 19 min 10 sec) 
Heartbeat CPU  0 instructions:  326000000 cycles:  540127242 heartbeat IPC: 0.34294 cumulative IPC: 0.48898 (Simulation time: 0 hr 19 min 14 sec) 
Heartbeat CPU  0 instructions:  327000003 cycles:  543038790 heartbeat IPC: 0.34346 cumulative IPC: 0.48807 (Simulation time: 0 hr 19 min 19 sec) 
Heartbeat CPU  0 instructions:  328000000 cycles:  545968454 heartbeat IPC: 0.34134 cumulative IPC: 0.48715 (Simulation time: 0 hr 19 min 23 sec) 
Heartbeat CPU  0 instructions:  329000001 cycles:  548882359 heartbeat IPC: 0.34318 cumulative IPC: 0.48626 (Simulation time: 0 hr 19 min 27 sec) 
Heartbeat CPU  0 instructions:  330000000 cycles:  551796727 heartbeat IPC: 0.34313 cumulative IPC: 0.48538 (Simulation time: 0 hr 19 min 32 sec) 
Heartbeat CPU  0 instructions:  331000003 cycles:  554724477 heartbeat IPC: 0.34156 cumulative IPC: 0.48450 (Simulation time: 0 hr 19 min 36 sec) 
Heartbeat CPU  0 instructions:  332000000 cycles:  557635004 heartbeat IPC: 0.34358 cumulative IPC: 0.48365 (Simulation time: 0 hr 19 min 41 sec) 
Heartbeat CPU  0 instructions:  333000000 cycles:  560548544 heartbeat IPC: 0.34323 cumulative IPC: 0.48280 (Simulation time: 0 hr 19 min 45 sec) 
Heartbeat CPU  0 instructions:  334000001 cycles:  563454233 heartbeat IPC: 0.34415 cumulative IPC: 0.48197 (Simulation time: 0 hr 19 min 49 sec) 
Heartbeat CPU  0 instructions:  335000001 cycles:  566166350 heartbeat IPC: 0.36872 cumulative IPC: 0.48134 (Simulation time: 0 hr 19 min 54 sec) 
Heartbeat CPU  0 instructions:  336000000 cycles:  567898094 heartbeat IPC: 0.57745 cumulative IPC: 0.48168 (Simulation time: 0 hr 19 min 57 sec) 
Heartbeat CPU  0 instructions:  337000002 cycles:  569624062 heartbeat IPC: 0.57939 cumulative IPC: 0.48202 (Simulation time: 0 hr 20 min 1 sec) 
Heartbeat CPU  0 instructions:  338000002 cycles:  571336247 heartbeat IPC: 0.58405 cumulative IPC: 0.48238 (Simulation time: 0 hr 20 min 5 sec) 
Heartbeat CPU  0 instructions:  339000001 cycles:  573053692 heartbeat IPC: 0.58226 cumulative IPC: 0.48272 (Simulation time: 0 hr 20 min 9 sec) 
Heartbeat CPU  0 instructions:  340000000 cycles:  574753657 heartbeat IPC: 0.58825 cumulative IPC: 0.48308 (Simulation time: 0 hr 20 min 12 sec) 
Heartbeat CPU  0 instructions:  341000002 cycles:  576440837 heartbeat IPC: 0.59271 cumulative IPC: 0.48345 (Simulation time: 0 hr 20 min 16 sec) 
Heartbeat CPU  0 instructions:  342000001 cycles:  578129276 heartbeat IPC: 0.59226 cumulative IPC: 0.48382 (Simulation time: 0 hr 20 min 20 sec) 
Heartbeat CPU  0 instructions:  343000003 cycles:  579849488 heartbeat IPC: 0.58132 cumulative IPC: 0.48416 (Simulation time: 0 hr 20 min 24 sec) 
Heartbeat CPU  0 instructions:  344000000 cycles:  581586654 heartbeat IPC: 0.57565 cumulative IPC: 0.48447 (Simulation time: 0 hr 20 min 28 sec) 
Heartbeat CPU  0 instructions:  345000001 cycles:  583292724 heartbeat IPC: 0.58614 cumulative IPC: 0.48481 (Simulation time: 0 hr 20 min 31 sec) 
Heartbeat CPU  0 instructions:  346000002 cycles:  585041751 heartbeat IPC: 0.57175 cumulative IPC: 0.48511 (Simulation time: 0 hr 20 min 35 sec) 
Heartbeat CPU  0 instructions:  347000000 cycles:  587016494 heartbeat IPC: 0.50639 cumulative IPC: 0.48520 (Simulation time: 0 hr 20 min 39 sec) 
Heartbeat CPU  0 instructions:  348000000 cycles:  588731795 heartbeat IPC: 0.58299 cumulative IPC: 0.48552 (Simulation time: 0 hr 20 min 43 sec) 
Heartbeat CPU  0 instructions:  349000001 cycles:  590432282 heartbeat IPC: 0.58807 cumulative IPC: 0.48587 (Simulation time: 0 hr 20 min 47 sec) 
Heartbeat CPU  0 instructions:  350000001 cycles:  592159905 heartbeat IPC: 0.57883 cumulative IPC: 0.48618 (Simulation time: 0 hr 20 min 50 sec) 
Heartbeat CPU  0 instructions:  351000000 cycles:  593889835 heartbeat IPC: 0.57806 cumulative IPC: 0.48649 (Simulation time: 0 hr 20 min 54 sec) 
Heartbeat CPU  0 instructions:  352000000 cycles:  595661950 heartbeat IPC: 0.56430 cumulative IPC: 0.48675 (Simulation time: 0 hr 20 min 58 sec) 
Heartbeat CPU  0 instructions:  353000002 cycles:  597427464 heartbeat IPC: 0.56641 cumulative IPC: 0.48702 (Simulation time: 0 hr 21 min 2 sec) 
Heartbeat CPU  0 instructions:  354000000 cycles:  599189814 heartbeat IPC: 0.56742 cumulative IPC: 0.48729 (Simulation time: 0 hr 21 min 6 sec) 
Heartbeat CPU  0 instructions:  355000000 cycles:  600915170 heartbeat IPC: 0.57959 cumulative IPC: 0.48760 (Simulation time: 0 hr 21 min 9 sec) 
Heartbeat CPU  0 instructions:  356000000 cycles:  602669203 heartbeat IPC: 0.57011 cumulative IPC: 0.48787 (Simulation time: 0 hr 21 min 13 sec) 
Heartbeat CPU  0 instructions:  357000001 cycles:  604422745 heartbeat IPC: 0.57027 cumulative IPC: 0.48815 (Simulation time: 0 hr 21 min 17 sec) 
Heartbeat CPU  0 instructions:  358000003 cycles:  606178272 heartbeat IPC: 0.56963 cumulative IPC: 0.48842 (Simulation time: 0 hr 21 min 21 sec) 
Heartbeat CPU  0 instructions:  359000000 cycles:  607860809 heartbeat IPC: 0.59434 cumulative IPC: 0.48876 (Simulation time: 0 hr 21 min 25 sec) 
Heartbeat CPU  0 instructions:  360000000 cycles:  609524661 heartbeat IPC: 0.60101 cumulative IPC: 0.48911 (Simulation time: 0 hr 21 min 28 sec) 
Heartbeat CPU  0 instructions:  361000000 cycles:  610942632 heartbeat IPC: 0.70523 cumulative IPC: 0.48968 (Simulation time: 0 hr 21 min 32 sec) 
Heartbeat CPU  0 instructions:  362000002 cycles:  612363399 heartbeat IPC: 0.70385 cumulative IPC: 0.49025 (Simulation time: 0 hr 21 min 36 sec) 
Heartbeat CPU  0 instructions:  363000002 cycles:  613783200 heartbeat IPC: 0.70432 cumulative IPC: 0.49082 (Simulation time: 0 hr 21 min 39 sec) 
Heartbeat CPU  0 instructions:  364000000 cycles:  615203570 heartbeat IPC: 0.70404 cumulative IPC: 0.49138 (Simulation time: 0 hr 21 min 43 sec) 
Heartbeat CPU  0 instructions:  365000002 cycles:  616622090 heartbeat IPC: 0.70496 cumulative IPC: 0.49195 (Simulation time: 0 hr 21 min 46 sec) 
Heartbeat CPU  0 instructions:  366000002 cycles:  618041515 heartbeat IPC: 0.70451 cumulative IPC: 0.49250 (Simulation time: 0 hr 21 min 50 sec) 
Heartbeat CPU  0 instructions:  367000001 cycles:  619456669 heartbeat IPC: 0.70664 cumulative IPC: 0.49306 (Simulation time: 0 hr 21 min 54 sec) 
Heartbeat CPU  0 instructions:  368000000 cycles:  620874136 heartbeat IPC: 0.70548 cumulative IPC: 0.49362 (Simulation time: 0 hr 21 min 57 sec) 
Heartbeat CPU  0 instructions:  369000000 cycles:  622293777 heartbeat IPC: 0.70440 cumulative IPC: 0.49417 (Simulation time: 0 hr 22 min 1 sec) 
Heartbeat CPU  0 instructions:  370000003 cycles:  623713800 heartbeat IPC: 0.70422 cumulative IPC: 0.49471 (Simulation time: 0 hr 22 min 5 sec) 
Heartbeat CPU  0 instructions:  371000001 cycles:  625143531 heartbeat IPC: 0.69943 cumulative IPC: 0.49525 (Simulation time: 0 hr 22 min 8 sec) 
Heartbeat CPU  0 instructions:  372000000 cycles:  626574098 heartbeat IPC: 0.69902 cumulative IPC: 0.49578 (Simulation time: 0 hr 22 min 12 sec) 
Heartbeat CPU  0 instructions:  373000000 cycles:  627998427 heartbeat IPC: 0.70208 cumulative IPC: 0.49631 (Simulation time: 0 hr 22 min 15 sec) 
Heartbeat CPU  0 instructions:  374000000 cycles:  629421368 heartbeat IPC: 0.70277 cumulative IPC: 0.49685 (Simulation time: 0 hr 22 min 19 sec) 
Heartbeat CPU  0 instructions:  375000001 cycles:  631079817 heartbeat IPC: 0.60297 cumulative IPC: 0.49717 (Simulation time: 0 hr 22 min 23 sec) 
Heartbeat CPU  0 instructions:  376000000 cycles:  632485226 heartbeat IPC: 0.71154 cumulative IPC: 0.49771 (Simulation time: 0 hr 22 min 27 sec) 
Heartbeat CPU  0 instructions:  377000001 cycles:  633886589 heartbeat IPC: 0.71359 cumulative IPC: 0.49825 (Simulation time: 0 hr 22 min 30 sec) 
Heartbeat CPU  0 instructions:  378000003 cycles:  635289532 heartbeat IPC: 0.71279 cumulative IPC: 0.49879 (Simulation time: 0 hr 22 min 34 sec) 
Heartbeat CPU  0 instructions:  379000000 cycles:  636694630 heartbeat IPC: 0.71169 cumulative IPC: 0.49933 (Simulation time: 0 hr 22 min 38 sec) 
Heartbeat CPU  0 instructions:  380000000 cycles:  638092722 heartbeat IPC: 0.71526 cumulative IPC: 0.49987 (Simulation time: 0 hr 22 min 42 sec) 
Heartbeat CPU  0 instructions:  381000003 cycles:  639493640 heartbeat IPC: 0.71382 cumulative IPC: 0.50040 (Simulation time: 0 hr 22 min 45 sec) 
Heartbeat CPU  0 instructions:  382000003 cycles:  640892195 heartbeat IPC: 0.71502 cumulative IPC: 0.50093 (Simulation time: 0 hr 22 min 49 sec) 
Heartbeat CPU  0 instructions:  383000003 cycles:  642291624 heartbeat IPC: 0.71458 cumulative IPC: 0.50146 (Simulation time: 0 hr 22 min 52 sec) 
Heartbeat CPU  0 instructions:  384000000 cycles:  643687565 heartbeat IPC: 0.71636 cumulative IPC: 0.50199 (Simulation time: 0 hr 22 min 56 sec) 
Heartbeat CPU  0 instructions:  385000003 cycles:  645086614 heartbeat IPC: 0.71477 cumulative IPC: 0.50252 (Simulation time: 0 hr 22 min 59 sec) 
Heartbeat CPU  0 instructions:  386000001 cycles:  646484524 heartbeat IPC: 0.71535 cumulative IPC: 0.50304 (Simulation time: 0 hr 23 min 2 sec) 
Heartbeat CPU  0 instructions:  387000003 cycles:  647888521 heartbeat IPC: 0.71225 cumulative IPC: 0.50356 (Simulation time: 0 hr 23 min 6 sec) 
Heartbeat CPU  0 instructions:  388000000 cycles:  649307871 heartbeat IPC: 0.70455 cumulative IPC: 0.50406 (Simulation time: 0 hr 23 min 9 sec) 
Heartbeat CPU  0 instructions:  389000003 cycles:  650722052 heartbeat IPC: 0.70713 cumulative IPC: 0.50456 (Simulation time: 0 hr 23 min 13 sec) 
Heartbeat CPU  0 instructions:  390000000 cycles:  652836127 heartbeat IPC: 0.47302 cumulative IPC: 0.50444 (Simulation time: 0 hr 23 min 17 sec) 
Heartbeat CPU  0 instructions:  391000003 cycles:  655761686 heartbeat IPC: 0.34182 cumulative IPC: 0.50362 (Simulation time: 0 hr 23 min 21 sec) 
Heartbeat CPU  0 instructions:  392000000 cycles:  658673682 heartbeat IPC: 0.34341 cumulative IPC: 0.50282 (Simulation time: 0 hr 23 min 25 sec) 
Heartbeat CPU  0 instructions:  393000003 cycles:  661567315 heartbeat IPC: 0.34559 cumulative IPC: 0.50204 (Simulation time: 0 hr 23 min 29 sec) 
Heartbeat CPU  0 instructions:  394000002 cycles:  664490981 heartbeat IPC: 0.34204 cumulative IPC: 0.50124 (Simulation time: 0 hr 23 min 34 sec) 
Heartbeat CPU  0 instructions:  395000002 cycles:  667383251 heartbeat IPC: 0.34575 cumulative IPC: 0.50048 (Simulation time: 0 hr 23 min 38 sec) 
Heartbeat CPU  0 instructions:  396000000 cycles:  670297094 heartbeat IPC: 0.34319 cumulative IPC: 0.49970 (Simulation time: 0 hr 23 min 42 sec) 
Heartbeat CPU  0 instructions:  397000002 cycles:  673200137 heartbeat IPC: 0.34447 cumulative IPC: 0.49895 (Simulation time: 0 hr 23 min 47 sec) 
Heartbeat CPU  0 instructions:  398000001 cycles:  676111133 heartbeat IPC: 0.34352 cumulative IPC: 0.49819 (Simulation time: 0 hr 23 min 51 sec) 
Heartbeat CPU  0 instructions:  399000001 cycles:  679027943 heartbeat IPC: 0.34284 cumulative IPC: 0.49743 (Simulation time: 0 hr 23 min 55 sec) 
Heartbeat CPU  0 instructions:  400000000 cycles:  681936486 heartbeat IPC: 0.34381 cumulative IPC: 0.49670 (Simulation time: 0 hr 24 min 0 sec) 
Heartbeat CPU  0 instructions:  401000001 cycles:  684841213 heartbeat IPC: 0.34427 cumulative IPC: 0.49597 (Simulation time: 0 hr 24 min 4 sec) 
Heartbeat CPU  0 instructions:  402000000 cycles:  687924696 heartbeat IPC: 0.32431 cumulative IPC: 0.49510 (Simulation time: 0 hr 24 min 8 sec) 
Heartbeat CPU  0 instructions:  403000000 cycles:  690830993 heartbeat IPC: 0.34408 cumulative IPC: 0.49438 (Simulation time: 0 hr 24 min 12 sec) 
Heartbeat CPU  0 instructions:  404000000 cycles:  693735673 heartbeat IPC: 0.34427 cumulative IPC: 0.49367 (Simulation time: 0 hr 24 min 16 sec) 
Heartbeat CPU  0 instructions:  405000000 cycles:  696634429 heartbeat IPC: 0.34498 cumulative IPC: 0.49298 (Simulation time: 0 hr 24 min 21 sec) 
Heartbeat CPU  0 instructions:  406000000 cycles:  699533399 heartbeat IPC: 0.34495 cumulative IPC: 0.49229 (Simulation time: 0 hr 24 min 25 sec) 
Heartbeat CPU  0 instructions:  407000001 cycles:  702442289 heartbeat IPC: 0.34377 cumulative IPC: 0.49159 (Simulation time: 0 hr 24 min 29 sec) 
Heartbeat CPU  0 instructions:  408000000 cycles:  705349550 heartbeat IPC: 0.34397 cumulative IPC: 0.49091 (Simulation time: 0 hr 24 min 33 sec) 
Heartbeat CPU  0 instructions:  409000002 cycles:  708237441 heartbeat IPC: 0.34627 cumulative IPC: 0.49025 (Simulation time: 0 hr 24 min 37 sec) 
Heartbeat CPU  0 instructions:  410000003 cycles:  711144654 heartbeat IPC: 0.34397 cumulative IPC: 0.48958 (Simulation time: 0 hr 24 min 41 sec) 
Heartbeat CPU  0 instructions:  411000001 cycles:  714035968 heartbeat IPC: 0.34586 cumulative IPC: 0.48892 (Simulation time: 0 hr 24 min 46 sec) 
Heartbeat CPU  0 instructions:  412000000 cycles:  716918523 heartbeat IPC: 0.34691 cumulative IPC: 0.48828 (Simulation time: 0 hr 24 min 50 sec) 
Heartbeat CPU  0 instructions:  413000002 cycles:  719810724 heartbeat IPC: 0.34576 cumulative IPC: 0.48764 (Simulation time: 0 hr 24 min 54 sec) 
Heartbeat CPU  0 instructions:  414000001 cycles:  722764307 heartbeat IPC: 0.33857 cumulative IPC: 0.48696 (Simulation time: 0 hr 24 min 58 sec) 
Heartbeat CPU  0 instructions:  415000000 cycles:  724400661 heartbeat IPC: 0.61111 cumulative IPC: 0.48727 (Simulation time: 0 hr 25 min 2 sec) 
Heartbeat CPU  0 instructions:  416000000 cycles:  726023778 heartbeat IPC: 0.61610 cumulative IPC: 0.48759 (Simulation time: 0 hr 25 min 6 sec) 
Heartbeat CPU  0 instructions:  417000003 cycles:  727641005 heartbeat IPC: 0.61834 cumulative IPC: 0.48792 (Simulation time: 0 hr 25 min 9 sec) 
Heartbeat CPU  0 instructions:  418000000 cycles:  729242253 heartbeat IPC: 0.62451 cumulative IPC: 0.48826 (Simulation time: 0 hr 25 min 13 sec) 
Heartbeat CPU  0 instructions:  419000002 cycles:  730879186 heartbeat IPC: 0.61090 cumulative IPC: 0.48856 (Simulation time: 0 hr 25 min 16 sec) 
Heartbeat CPU  0 instructions:  420000000 cycles:  732512667 heartbeat IPC: 0.61219 cumulative IPC: 0.48887 (Simulation time: 0 hr 25 min 20 sec) 
Heartbeat CPU  0 instructions:  421000000 cycles:  734121560 heartbeat IPC: 0.62155 cumulative IPC: 0.48920 (Simulation time: 0 hr 25 min 23 sec) 
Heartbeat CPU  0 instructions:  422000001 cycles:  735750042 heartbeat IPC: 0.61407 cumulative IPC: 0.48951 (Simulation time: 0 hr 25 min 27 sec) 
Heartbeat CPU  0 instructions:  423000003 cycles:  737381583 heartbeat IPC: 0.61292 cumulative IPC: 0.48981 (Simulation time: 0 hr 25 min 30 sec) 
Heartbeat CPU  0 instructions:  424000000 cycles:  738997054 heartbeat IPC: 0.61901 cumulative IPC: 0.49013 (Simulation time: 0 hr 25 min 34 sec) 
Heartbeat CPU  0 instructions:  425000003 cycles:  740610857 heartbeat IPC: 0.61966 cumulative IPC: 0.49044 (Simulation time: 0 hr 25 min 37 sec) 
Heartbeat CPU  0 instructions:  426000002 cycles:  742239148 heartbeat IPC: 0.61414 cumulative IPC: 0.49075 (Simulation time: 0 hr 25 min 41 sec) 
Heartbeat CPU  0 instructions:  427000003 cycles:  744154217 heartbeat IPC: 0.52217 cumulative IPC: 0.49084 (Simulation time: 0 hr 25 min 45 sec) 
Heartbeat CPU  0 instructions:  428000000 cycles:  745781499 heartbeat IPC: 0.61452 cumulative IPC: 0.49114 (Simulation time: 0 hr 25 min 48 sec) 
Heartbeat CPU  0 instructions:  429000001 cycles:  747394963 heartbeat IPC: 0.61979 cumulative IPC: 0.49145 (Simulation time: 0 hr 25 min 52 sec) 
Heartbeat CPU  0 instructions:  430000003 cycles:  749029047 heartbeat IPC: 0.61196 cumulative IPC: 0.49174 (Simulation time: 0 hr 25 min 55 sec) 
Heartbeat CPU  0 instructions:  431000001 cycles:  750618304 heartbeat IPC: 0.62922 cumulative IPC: 0.49207 (Simulation time: 0 hr 25 min 59 sec) 
Heartbeat CPU  0 instructions:  432000000 cycles:  752251763 heartbeat IPC: 0.61220 cumulative IPC: 0.49236 (Simulation time: 0 hr 26 min 3 sec) 
Heartbeat CPU  0 instructions:  433000001 cycles:  753866233 heartbeat IPC: 0.61940 cumulative IPC: 0.49266 (Simulation time: 0 hr 26 min 7 sec) 
Heartbeat CPU  0 instructions:  434000001 cycles:  755495810 heartbeat IPC: 0.61366 cumulative IPC: 0.49295 (Simulation time: 0 hr 26 min 10 sec) 
Heartbeat CPU  0 instructions:  435000000 cycles:  757096921 heartbeat IPC: 0.62457 cumulative IPC: 0.49326 (Simulation time: 0 hr 26 min 14 sec) 
Heartbeat CPU  0 instructions:  436000000 cycles:  758753207 heartbeat IPC: 0.60376 cumulative IPC: 0.49353 (Simulation time: 0 hr 26 min 17 sec) 
Heartbeat CPU  0 instructions:  437000000 cycles:  760375425 heartbeat IPC: 0.61644 cumulative IPC: 0.49382 (Simulation time: 0 hr 26 min 21 sec) 
Heartbeat CPU  0 instructions:  438000000 cycles:  762006230 heartbeat IPC: 0.61319 cumulative IPC: 0.49411 (Simulation time: 0 hr 26 min 25 sec) 
Heartbeat CPU  0 instructions:  439000002 cycles:  763750355 heartbeat IPC: 0.57335 cumulative IPC: 0.49431 (Simulation time: 0 hr 26 min 28 sec) 
Heartbeat CPU  0 instructions:  440000000 cycles:  765187744 heartbeat IPC: 0.69570 cumulative IPC: 0.49473 (Simulation time: 0 hr 26 min 32 sec) 
Heartbeat CPU  0 instructions:  441000001 cycles:  766615600 heartbeat IPC: 0.70035 cumulative IPC: 0.49516 (Simulation time: 0 hr 26 min 35 sec) 
Heartbeat CPU  0 instructions:  442000001 cycles:  768042634 heartbeat IPC: 0.70075 cumulative IPC: 0.49558 (Simulation time: 0 hr 26 min 39 sec) 
Heartbeat CPU  0 instructions:  443000000 cycles:  769471812 heartbeat IPC: 0.69970 cumulative IPC: 0.49600 (Simulation time: 0 hr 26 min 42 sec) 
Heartbeat CPU  0 instructions:  444000000 cycles:  770900243 heartbeat IPC: 0.70007 cumulative IPC: 0.49642 (Simulation time: 0 hr 26 min 45 sec) 
Heartbeat CPU  0 instructions:  445000000 cycles:  772329469 heartbeat IPC: 0.69968 cumulative IPC: 0.49684 (Simulation time: 0 hr 26 min 49 sec) 
Heartbeat CPU  0 instructions:  446000002 cycles:  773763049 heartbeat IPC: 0.69756 cumulative IPC: 0.49726 (Simulation time: 0 hr 26 min 52 sec) 
Heartbeat CPU  0 instructions:  447000000 cycles:  775193732 heartbeat IPC: 0.69897 cumulative IPC: 0.49767 (Simulation time: 0 hr 26 min 56 sec) 
Heartbeat CPU  0 instructions:  448000000 cycles:  776628632 heartbeat IPC: 0.69691 cumulative IPC: 0.49808 (Simulation time: 0 hr 26 min 59 sec) 
Heartbeat CPU  0 instructions:  449000003 cycles:  778063745 heartbeat IPC: 0.69681 cumulative IPC: 0.49849 (Simulation time: 0 hr 27 min 3 sec) 
Heartbeat CPU  0 instructions:  450000003 cycles:  779501367 heartbeat IPC: 0.69559 cumulative IPC: 0.49889 (Simulation time: 0 hr 27 min 6 sec) 
Heartbeat CPU  0 instructions:  451000003 cycles:  780932204 heartbeat IPC: 0.69889 cumulative IPC: 0.49930 (Simulation time: 0 hr 27 min 10 sec) 
Heartbeat CPU  0 instructions:  452000000 cycles:  782366277 heartbeat IPC: 0.69731 cumulative IPC: 0.49970 (Simulation time: 0 hr 27 min 13 sec) 
Heartbeat CPU  0 instructions:  453000003 cycles:  783805759 heartbeat IPC: 0.69470 cumulative IPC: 0.50010 (Simulation time: 0 hr 27 min 17 sec) 
Heartbeat CPU  0 instructions:  454000001 cycles:  785519760 heartbeat IPC: 0.58343 cumulative IPC: 0.50030 (Simulation time: 0 hr 27 min 20 sec) 
Heartbeat CPU  0 instructions:  455000003 cycles:  786964366 heartbeat IPC: 0.69223 cumulative IPC: 0.50069 (Simulation time: 0 hr 27 min 24 sec) 
Heartbeat CPU  0 instructions:  456000000 cycles:  788383199 heartbeat IPC: 0.70480 cumulative IPC: 0.50110 (Simulation time: 0 hr 27 min 27 sec) 
Heartbeat CPU  0 instructions:  457000001 cycles:  789806084 heartbeat IPC: 0.70280 cumulative IPC: 0.50150 (Simulation time: 0 hr 27 min 31 sec) 
Heartbeat CPU  0 instructions:  458000003 cycles:  791228962 heartbeat IPC: 0.70280 cumulative IPC: 0.50190 (Simulation time: 0 hr 27 min 34 sec) 
Heartbeat CPU  0 instructions:  459000001 cycles:  792650495 heartbeat IPC: 0.70346 cumulative IPC: 0.50230 (Simulation time: 0 hr 27 min 38 sec) 
Heartbeat CPU  0 instructions:  460000000 cycles:  794070571 heartbeat IPC: 0.70419 cumulative IPC: 0.50270 (Simulation time: 0 hr 27 min 41 sec) 
Heartbeat CPU  0 instructions:  461000003 cycles:  795493693 heartbeat IPC: 0.70268 cumulative IPC: 0.50310 (Simulation time: 0 hr 27 min 45 sec) 
Heartbeat CPU  0 instructions:  462000001 cycles:  796926624 heartbeat IPC: 0.69787 cumulative IPC: 0.50349 (Simulation time: 0 hr 27 min 48 sec) 
Heartbeat CPU  0 instructions:  463000000 cycles:  798354471 heartbeat IPC: 0.70035 cumulative IPC: 0.50388 (Simulation time: 0 hr 27 min 52 sec) 
Heartbeat CPU  0 instructions:  464000000 cycles:  799782962 heartbeat IPC: 0.70004 cumulative IPC: 0.50427 (Simulation time: 0 hr 27 min 55 sec) 
Heartbeat CPU  0 instructions:  465000001 cycles:  801213295 heartbeat IPC: 0.69914 cumulative IPC: 0.50465 (Simulation time: 0 hr 27 min 59 sec) 
Heartbeat CPU  0 instructions:  466000003 cycles:  802648265 heartbeat IPC: 0.69688 cumulative IPC: 0.50503 (Simulation time: 0 hr 28 min 2 sec) 
Heartbeat CPU  0 instructions:  467000003 cycles:  804079656 heartbeat IPC: 0.69862 cumulative IPC: 0.50542 (Simulation time: 0 hr 28 min 5 sec) 
Heartbeat CPU  0 instructions:  468000000 cycles:  805508380 heartbeat IPC: 0.69992 cumulative IPC: 0.50580 (Simulation time: 0 hr 28 min 9 sec) 
Heartbeat CPU  0 instructions:  469000002 cycles:  807229595 heartbeat IPC: 0.58099 cumulative IPC: 0.50597 (Simulation time: 0 hr 28 min 13 sec) 
Heartbeat CPU  0 instructions:  470000000 cycles:  810173620 heartbeat IPC: 0.33967 cumulative IPC: 0.50531 (Simulation time: 0 hr 28 min 17 sec) 
Heartbeat CPU  0 instructions:  471000001 cycles:  813051213 heartbeat IPC: 0.34751 cumulative IPC: 0.50469 (Simulation time: 0 hr 28 min 21 sec) 
Heartbeat CPU  0 instructions:  472000000 cycles:  815925481 heartbeat IPC: 0.34791 cumulative IPC: 0.50408 (Simulation time: 0 hr 28 min 25 sec) 
Heartbeat CPU  0 instructions:  473000001 cycles:  818802049 heartbeat IPC: 0.34764 cumulative IPC: 0.50347 (Simulation time: 0 hr 28 min 29 sec) 
Heartbeat CPU  0 instructions:  474000003 cycles:  821689110 heartbeat IPC: 0.34637 cumulative IPC: 0.50286 (Simulation time: 0 hr 28 min 34 sec) 
Heartbeat CPU  0 instructions:  475000002 cycles:  824558660 heartbeat IPC: 0.34849 cumulative IPC: 0.50227 (Simulation time: 0 hr 28 min 38 sec) 
Heartbeat CPU  0 instructions:  476000000 cycles:  827443542 heartbeat IPC: 0.34663 cumulative IPC: 0.50167 (Simulation time: 0 hr 28 min 42 sec) 
Heartbeat CPU  0 instructions:  477000003 cycles:  830307993 heartbeat IPC: 0.34911 cumulative IPC: 0.50109 (Simulation time: 0 hr 28 min 46 sec) 
Heartbeat CPU  0 instructions:  478000000 cycles:  833182794 heartbeat IPC: 0.34785 cumulative IPC: 0.50050 (Simulation time: 0 hr 28 min 51 sec) 
Heartbeat CPU  0 instructions:  479000001 cycles:  836061915 heartbeat IPC: 0.34733 cumulative IPC: 0.49992 (Simulation time: 0 hr 28 min 55 sec) 
Heartbeat CPU  0 instructions:  480000000 cycles:  838932615 heartbeat IPC: 0.34835 cumulative IPC: 0.49935 (Simulation time: 0 hr 28 min 59 sec) 
Heartbeat CPU  0 instructions:  481000001 cycles:  841893935 heartbeat IPC: 0.33769 cumulative IPC: 0.49872 (Simulation time: 0 hr 29 min 3 sec) 
Heartbeat CPU  0 instructions:  482000000 cycles:  844893894 heartbeat IPC: 0.33334 cumulative IPC: 0.49808 (Simulation time: 0 hr 29 min 8 sec) 
Heartbeat CPU  0 instructions:  483000003 cycles:  847773873 heartbeat IPC: 0.34723 cumulative IPC: 0.49751 (Simulation time: 0 hr 29 min 12 sec) 
Heartbeat CPU  0 instructions:  484000000 cycles:  850656080 heartbeat IPC: 0.34696 cumulative IPC: 0.49695 (Simulation time: 0 hr 29 min 16 sec) 
Heartbeat CPU  0 instructions:  485000001 cycles:  853531030 heartbeat IPC: 0.34783 cumulative IPC: 0.49640 (Simulation time: 0 hr 29 min 20 sec) 
Heartbeat CPU  0 instructions:  486000002 cycles:  856402925 heartbeat IPC: 0.34820 cumulative IPC: 0.49585 (Simulation time: 0 hr 29 min 24 sec) 
Heartbeat CPU  0 instructions:  487000003 cycles:  859281402 heartbeat IPC: 0.34741 cumulative IPC: 0.49530 (Simulation time: 0 hr 29 min 28 sec) 
Heartbeat CPU  0 instructions:  488000000 cycles:  862154245 heartbeat IPC: 0.34809 cumulative IPC: 0.49477 (Simulation time: 0 hr 29 min 33 sec) 
Heartbeat CPU  0 instructions:  489000002 cycles:  865026749 heartbeat IPC: 0.34813 cumulative IPC: 0.49423 (Simulation time: 0 hr 29 min 37 sec) 
Heartbeat CPU  0 instructions:  490000003 cycles:  867901444 heartbeat IPC: 0.34786 cumulative IPC: 0.49370 (Simulation time: 0 hr 29 min 41 sec) 
Heartbeat CPU  0 instructions:  491000003 cycles:  870774895 heartbeat IPC: 0.34801 cumulative IPC: 0.49317 (Simulation time: 0 hr 29 min 45 sec) 
Heartbeat CPU  0 instructions:  492000000 cycles:  873641498 heartbeat IPC: 0.34884 cumulative IPC: 0.49265 (Simulation time: 0 hr 29 min 50 sec) 
Heartbeat CPU  0 instructions:  493000002 cycles:  876489339 heartbeat IPC: 0.35114 cumulative IPC: 0.49215 (Simulation time: 0 hr 29 min 54 sec) 
Heartbeat CPU  0 instructions:  494000002 cycles:  878513136 heartbeat IPC: 0.49412 cumulative IPC: 0.49215 (Simulation time: 0 hr 29 min 58 sec) 
Heartbeat CPU  0 instructions:  495000003 cycles:  880166390 heartbeat IPC: 0.60487 cumulative IPC: 0.49238 (Simulation time: 0 hr 30 min 1 sec) 
Heartbeat CPU  0 instructions:  496000000 cycles:  881810704 heartbeat IPC: 0.60815 cumulative IPC: 0.49262 (Simulation time: 0 hr 30 min 5 sec) 
Heartbeat CPU  0 instructions:  497000002 cycles:  883449574 heartbeat IPC: 0.61018 cumulative IPC: 0.49286 (Simulation time: 0 hr 30 min 8 sec) 
Heartbeat CPU  0 instructions:  498000002 cycles:  885081492 heartbeat IPC: 0.61278 cumulative IPC: 0.49310 (Simulation time: 0 hr 30 min 12 sec) 
Heartbeat CPU  0 instructions:  499000002 cycles:  886707661 heartbeat IPC: 0.61494 cumulative IPC: 0.49335 (Simulation time: 0 hr 30 min 16 sec) 
Heartbeat CPU  0 instructions:  500000000 cycles:  888328446 heartbeat IPC: 0.61698 cumulative IPC: 0.49359 (Simulation time: 0 hr 30 min 19 sec) 
Heartbeat CPU  0 instructions:  501000000 cycles:  889924899 heartbeat IPC: 0.62639 cumulative IPC: 0.49385 (Simulation time: 0 hr 30 min 23 sec) 
Heartbeat CPU  0 instructions:  502000001 cycles:  891569910 heartbeat IPC: 0.60790 cumulative IPC: 0.49408 (Simulation time: 0 hr 30 min 26 sec) 
Heartbeat CPU  0 instructions:  503000001 cycles:  893217683 heartbeat IPC: 0.60688 cumulative IPC: 0.49431 (Simulation time: 0 hr 30 min 30 sec) 
Heartbeat CPU  0 instructions:  504000000 cycles:  894852375 heartbeat IPC: 0.61174 cumulative IPC: 0.49455 (Simulation time: 0 hr 30 min 33 sec) 
Heartbeat CPU  0 instructions:  505000000 cycles:  896525097 heartbeat IPC: 0.59783 cumulative IPC: 0.49476 (Simulation time: 0 hr 30 min 37 sec) 
Heartbeat CPU  0 instructions:  506000001 cycles:  898495976 heartbeat IPC: 0.50739 cumulative IPC: 0.49479 (Simulation time: 0 hr 30 min 40 sec) 
Heartbeat CPU  0 instructions:  507000002 cycles:  900117316 heartbeat IPC: 0.61677 cumulative IPC: 0.49503 (Simulation time: 0 hr 30 min 44 sec) 
Heartbeat CPU  0 instructions:  508000000 cycles:  901766665 heartbeat IPC: 0.60630 cumulative IPC: 0.49525 (Simulation time: 0 hr 30 min 48 sec) 
Heartbeat CPU  0 instructions:  509000000 cycles:  903419619 heartbeat IPC: 0.60498 cumulative IPC: 0.49547 (Simulation time: 0 hr 30 min 51 sec) 
Heartbeat CPU  0 instructions:  510000001 cycles:  905092704 heartbeat IPC: 0.59770 cumulative IPC: 0.49568 (Simulation time: 0 hr 30 min 55 sec) 
Heartbeat CPU  0 instructions:  511000002 cycles:  906740789 heartbeat IPC: 0.60677 cumulative IPC: 0.49590 (Simulation time: 0 hr 30 min 59 sec) 
Heartbeat CPU  0 instructions:  512000000 cycles:  908407567 heartbeat IPC: 0.59996 cumulative IPC: 0.49611 (Simulation time: 0 hr 31 min 2 sec) 
Heartbeat CPU  0 instructions:  513000002 cycles:  910055248 heartbeat IPC: 0.60691 cumulative IPC: 0.49633 (Simulation time: 0 hr 31 min 6 sec) 
Heartbeat CPU  0 instructions:  514000001 cycles:  911690273 heartbeat IPC: 0.61161 cumulative IPC: 0.49655 (Simulation time: 0 hr 31 min 9 sec) 
Heartbeat CPU  0 instructions:  515000000 cycles:  913335996 heartbeat IPC: 0.60764 cumulative IPC: 0.49677 (Simulation time: 0 hr 31 min 13 sec) 
Heartbeat CPU  0 instructions:  516000000 cycles:  914998910 heartbeat IPC: 0.60135 cumulative IPC: 0.49698 (Simulation time: 0 hr 31 min 17 sec) 
Heartbeat CPU  0 instructions:  517000001 cycles:  916663601 heartbeat IPC: 0.60071 cumulative IPC: 0.49719 (Simulation time: 0 hr 31 min 20 sec) 
Heartbeat CPU  0 instructions:  518000001 cycles:  918434497 heartbeat IPC: 0.56469 cumulative IPC: 0.49733 (Simulation time: 0 hr 31 min 24 sec) 
Heartbeat CPU  0 instructions:  519000000 cycles:  919870868 heartbeat IPC: 0.69620 cumulative IPC: 0.49767 (Simulation time: 0 hr 31 min 27 sec) 
Heartbeat CPU  0 instructions:  520000000 cycles:  921296397 heartbeat IPC: 0.70149 cumulative IPC: 0.49801 (Simulation time: 0 hr 31 min 31 sec) 
Heartbeat CPU  0 instructions:  521000000 cycles:  922720934 heartbeat IPC: 0.70198 cumulative IPC: 0.49836 (Simulation time: 0 hr 31 min 34 sec) 
Heartbeat CPU  0 instructions:  522000002 cycles:  924147155 heartbeat IPC: 0.70116 cumulative IPC: 0.49870 (Simulation time: 0 hr 31 min 38 sec) 
Heartbeat CPU  0 instructions:  523000001 cycles:  925574302 heartbeat IPC: 0.70070 cumulative IPC: 0.49904 (Simulation time: 0 hr 31 min 41 sec) 
Heartbeat CPU  0 instructions:  524000000 cycles:  926998499 heartbeat IPC: 0.70215 cumulative IPC: 0.49938 (Simulation time: 0 hr 31 min 45 sec) 
Heartbeat CPU  0 instructions:  525000002 cycles:  928426423 heartbeat IPC: 0.70032 cumulative IPC: 0.49972 (Simulation time: 0 hr 31 min 48 sec) 
Heartbeat CPU  0 instructions:  526000000 cycles:  929855823 heartbeat IPC: 0.69959 cumulative IPC: 0.50005 (Simulation time: 0 hr 31 min 51 sec) 
Heartbeat CPU  0 instructions:  527000001 cycles:  931283511 heartbeat IPC: 0.70043 cumulative IPC: 0.50039 (Simulation time: 0 hr 31 min 55 sec) 
Heartbeat CPU  0 instructions:  528000000 cycles:  932711274 heartbeat IPC: 0.70040 cumulative IPC: 0.50072 (Simulation time: 0 hr 31 min 58 sec) 
Heartbeat CPU  0 instructions:  529000001 cycles:  934139129 heartbeat IPC: 0.70035 cumulative IPC: 0.50105 (Simulation time: 0 hr 32 min 2 sec) 
Heartbeat CPU  0 instructions:  530000001 cycles:  935567481 heartbeat IPC: 0.70011 cumulative IPC: 0.50139 (Simulation time: 0 hr 32 min 5 sec) 
Heartbeat CPU  0 instructions:  531000003 cycles:  936999544 heartbeat IPC: 0.69829 cumulative IPC: 0.50171 (Simulation time: 0 hr 32 min 9 sec) 
Heartbeat CPU  0 instructions:  532000000 cycles:  938429252 heartbeat IPC: 0.69944 cumulative IPC: 0.50204 (Simulation time: 0 hr 32 min 12 sec) 
Heartbeat CPU  0 instructions:  533000003 cycles:  940125018 heartbeat IPC: 0.58971 cumulative IPC: 0.50221 (Simulation time: 0 hr 32 min 16 sec) 
Heartbeat CPU  0 instructions:  534000001 cycles:  941574752 heartbeat IPC: 0.68978 cumulative IPC: 0.50253 (Simulation time: 0 hr 32 min 19 sec) 
Heartbeat CPU  0 instructions:  535000003 cycles:  942993220 heartbeat IPC: 0.70499 cumulative IPC: 0.50286 (Simulation time: 0 hr 32 min 23 sec) 
Heartbeat CPU  0 instructions:  536000000 cycles:  944405096 heartbeat IPC: 0.70828 cumulative IPC: 0.50320 (Simulation time: 0 hr 32 min 26 sec) 
Heartbeat CPU  0 instructions:  537000003 cycles:  945823349 heartbeat IPC: 0.70509 cumulative IPC: 0.50353 (Simulation time: 0 hr 32 min 30 sec) 
Heartbeat CPU  0 instructions:  538000003 cycles:  947242571 heartbeat IPC: 0.70461 cumulative IPC: 0.50385 (Simulation time: 0 hr 32 min 33 sec) 
Heartbeat CPU  0 instructions:  539000003 cycles:  948661087 heartbeat IPC: 0.70496 cumulative IPC: 0.50418 (Simulation time: 0 hr 32 min 37 sec) 
Heartbeat CPU  0 instructions:  540000000 cycles:  950078735 heartbeat IPC: 0.70539 cumulative IPC: 0.50451 (Simulation time: 0 hr 32 min 40 sec) 
Heartbeat CPU  0 instructions:  541000001 cycles:  951502582 heartbeat IPC: 0.70232 cumulative IPC: 0.50483 (Simulation time: 0 hr 32 min 44 sec) 
Heartbeat CPU  0 instructions:  542000001 cycles:  952926631 heartbeat IPC: 0.70222 cumulative IPC: 0.50515 (Simulation time: 0 hr 32 min 47 sec) 
Heartbeat CPU  0 instructions:  543000001 cycles:  954346777 heartbeat IPC: 0.70415 cumulative IPC: 0.50548 (Simulation time: 0 hr 32 min 51 sec) 
Heartbeat CPU  0 instructions:  544000000 cycles:  955760678 heartbeat IPC: 0.70726 cumulative IPC: 0.50580 (Simulation time: 0 hr 32 min 54 sec) 
Heartbeat CPU  0 instructions:  545000003 cycles:  957179198 heartbeat IPC: 0.70496 cumulative IPC: 0.50612 (Simulation time: 0 hr 32 min 58 sec) 
Heartbeat CPU  0 instructions:  546000003 cycles:  958601909 heartbeat IPC: 0.70288 cumulative IPC: 0.50644 (Simulation time: 0 hr 33 min 1 sec) 
Heartbeat CPU  0 instructions:  547000001 cycles:  960031715 heartbeat IPC: 0.69939 cumulative IPC: 0.50675 (Simulation time: 0 hr 33 min 4 sec) 
Heartbeat CPU  0 instructions:  548000000 cycles:  961455671 heartbeat IPC: 0.70227 cumulative IPC: 0.50707 (Simulation time: 0 hr 33 min 8 sec) 
Heartbeat CPU  0 instructions:  549000003 cycles:  964329273 heartbeat IPC: 0.34800 cumulative IPC: 0.50655 (Simulation time: 0 hr 33 min 12 sec) 
Heartbeat CPU  0 instructions:  550000000 cycles:  967185645 heartbeat IPC: 0.35009 cumulative IPC: 0.50605 (Simulation time: 0 hr 33 min 16 sec) 
Heartbeat CPU  0 instructions:  551000003 cycles:  970065425 heartbeat IPC: 0.34725 cumulative IPC: 0.50554 (Simulation time: 0 hr 33 min 21 sec) 
Heartbeat CPU  0 instructions:  552000000 cycles:  972922750 heartbeat IPC: 0.34998 cumulative IPC: 0.50504 (Simulation time: 0 hr 33 min 25 sec) 
Heartbeat CPU  0 instructions:  553000000 cycles:  975795469 heartbeat IPC: 0.34810 cumulative IPC: 0.50454 (Simulation time: 0 hr 33 min 29 sec) 
Heartbeat CPU  0 instructions:  554000001 cycles:  978670792 heartbeat IPC: 0.34779 cumulative IPC: 0.50404 (Simulation time: 0 hr 33 min 33 sec) 
Heartbeat CPU  0 instructions:  555000001 cycles:  981541516 heartbeat IPC: 0.34834 cumulative IPC: 0.50354 (Simulation time: 0 hr 33 min 38 sec) 
Heartbeat CPU  0 instructions:  556000000 cycles:  984430031 heartbeat IPC: 0.34620 cumulative IPC: 0.50304 (Simulation time: 0 hr 33 min 42 sec) 
Heartbeat CPU  0 instructions:  557000001 cycles:  987285752 heartbeat IPC: 0.35017 cumulative IPC: 0.50256 (Simulation time: 0 hr 33 min 46 sec) 
Heartbeat CPU  0 instructions:  558000003 cycles:  990166396 heartbeat IPC: 0.34715 cumulative IPC: 0.50207 (Simulation time: 0 hr 33 min 50 sec) 
Heartbeat CPU  0 instructions:  559000002 cycles:  993015107 heartbeat IPC: 0.35104 cumulative IPC: 0.50160 (Simulation time: 0 hr 33 min 54 sec) 
Heartbeat CPU  0 instructions:  560000000 cycles:  995847823 heartbeat IPC: 0.35302 cumulative IPC: 0.50114 (Simulation time: 0 hr 33 min 59 sec) 
Heartbeat CPU  0 instructions:  561000003 cycles:  998939044 heartbeat IPC: 0.32350 cumulative IPC: 0.50055 (Simulation time: 0 hr 34 min 3 sec) 
Heartbeat CPU  0 instructions:  562000001 cycles: 1001809830 heartbeat IPC: 0.34834 cumulative IPC: 0.50007 (Simulation time: 0 hr 34 min 7 sec) 
Heartbeat CPU  0 instructions:  563000003 cycles: 1004680113 heartbeat IPC: 0.34840 cumulative IPC: 0.49960 (Simulation time: 0 hr 34 min 11 sec) 
Heartbeat CPU  0 instructions:  564000000 cycles: 1007557929 heartbeat IPC: 0.34748 cumulative IPC: 0.49913 (Simulation time: 0 hr 34 min 15 sec) 
Heartbeat CPU  0 instructions:  565000001 cycles: 1010436479 heartbeat IPC: 0.34740 cumulative IPC: 0.49866 (Simulation time: 0 hr 34 min 19 sec) 
Heartbeat CPU  0 instructions:  566000001 cycles: 1013313432 heartbeat IPC: 0.34759 cumulative IPC: 0.49820 (Simulation time: 0 hr 34 min 24 sec) 
Heartbeat CPU  0 instructions:  567000001 cycles: 1016191193 heartbeat IPC: 0.34749 cumulative IPC: 0.49774 (Simulation time: 0 hr 34 min 28 sec) 
Heartbeat CPU  0 instructions:  568000000 cycles: 1019063393 heartbeat IPC: 0.34816 cumulative IPC: 0.49728 (Simulation time: 0 hr 34 min 32 sec) 
Heartbeat CPU  0 instructions:  569000001 cycles: 1021938242 heartbeat IPC: 0.34784 cumulative IPC: 0.49683 (Simulation time: 0 hr 34 min 36 sec) 
Heartbeat CPU  0 instructions:  570000001 cycles: 1024813912 heartbeat IPC: 0.34775 cumulative IPC: 0.49637 (Simulation time: 0 hr 34 min 40 sec) 
Heartbeat CPU  0 instructions:  571000002 cycles: 1027691604 heartbeat IPC: 0.34750 cumulative IPC: 0.49592 (Simulation time: 0 hr 34 min 45 sec) 
Heartbeat CPU  0 instructions:  572000000 cycles: 1030555856 heartbeat IPC: 0.34913 cumulative IPC: 0.49548 (Simulation time: 0 hr 34 min 49 sec) 
Heartbeat CPU  0 instructions:  573000000 cycles: 1032853904 heartbeat IPC: 0.43515 cumulative IPC: 0.49533 (Simulation time: 0 hr 34 min 53 sec) 
Heartbeat CPU  0 instructions:  574000002 cycles: 1034480414 heartbeat IPC: 0.61481 cumulative IPC: 0.49554 (Simulation time: 0 hr 34 min 56 sec) 
Heartbeat CPU  0 instructions:  575000000 cycles: 1036110072 heartbeat IPC: 0.61362 cumulative IPC: 0.49574 (Simulation time: 0 hr 35 min 0 sec) 
Heartbeat CPU  0 instructions:  576000000 cycles: 1037745530 heartbeat IPC: 0.61145 cumulative IPC: 0.49594 (Simulation time: 0 hr 35 min 3 sec) 
Heartbeat CPU  0 instructions:  577000001 cycles: 1039361083 heartbeat IPC: 0.61898 cumulative IPC: 0.49614 (Simulation time: 0 hr 35 min 7 sec) 
Heartbeat CPU  0 instructions:  578000000 cycles: 1041006406 heartbeat IPC: 0.60778 cumulative IPC: 0.49633 (Simulation time: 0 hr 35 min 10 sec) 
Heartbeat CPU  0 instructions:  579000000 cycles: 1042671662 heartbeat IPC: 0.60051 cumulative IPC: 0.49651 (Simulation time: 0 hr 35 min 14 sec) 
Heartbeat CPU  0 instructions:  580000000 cycles: 1044317714 heartbeat IPC: 0.60751 cumulative IPC: 0.49670 (Simulation time: 0 hr 35 min 18 sec) 
Heartbeat CPU  0 instructions:  581000001 cycles: 1045978762 heartbeat IPC: 0.60203 cumulative IPC: 0.49688 (Simulation time: 0 hr 35 min 21 sec) 
Heartbeat CPU  0 instructions:  582000003 cycles: 1047651611 heartbeat IPC: 0.59778 cumulative IPC: 0.49706 (Simulation time: 0 hr 35 min 25 sec) 
Heartbeat CPU  0 instructions:  583000000 cycles: 1049336127 heartbeat IPC: 0.59364 cumulative IPC: 0.49722 (Simulation time: 0 hr 35 min 28 sec) 
Heartbeat CPU  0 instructions:  584000000 cycles: 1050997417 heartbeat IPC: 0.60194 cumulative IPC: 0.49740 (Simulation time: 0 hr 35 min 32 sec) 
Heartbeat CPU  0 instructions:  585000002 cycles: 1052983693 heartbeat IPC: 0.50346 cumulative IPC: 0.49742 (Simulation time: 0 hr 35 min 36 sec) 
Heartbeat CPU  0 instructions:  586000001 cycles: 1054648616 heartbeat IPC: 0.60063 cumulative IPC: 0.49759 (Simulation time: 0 hr 35 min 39 sec) 
Heartbeat CPU  0 instructions:  587000000 cycles: 1056317906 heartbeat IPC: 0.59906 cumulative IPC: 0.49776 (Simulation time: 0 hr 35 min 43 sec) 
Heartbeat CPU  0 instructions:  588000000 cycles: 1057998316 heartbeat IPC: 0.59509 cumulative IPC: 0.49793 (Simulation time: 0 hr 35 min 47 sec) 
Heartbeat CPU  0 instructions:  589000001 cycles: 1059678162 heartbeat IPC: 0.59529 cumulative IPC: 0.49810 (Simulation time: 0 hr 35 min 50 sec) 
Heartbeat CPU  0 instructions:  590000001 cycles: 1061351850 heartbeat IPC: 0.59748 cumulative IPC: 0.49827 (Simulation time: 0 hr 35 min 54 sec) 
Heartbeat CPU  0 instructions:  591000000 cycles: 1063043463 heartbeat IPC: 0.59115 cumulative IPC: 0.49843 (Simulation time: 0 hr 35 min 58 sec) 
Heartbeat CPU  0 instructions:  592000000 cycles: 1064737079 heartbeat IPC: 0.59045 cumulative IPC: 0.49858 (Simulation time: 0 hr 36 min 1 sec) 
Heartbeat CPU  0 instructions:  593000002 cycles: 1066443498 heartbeat IPC: 0.58602 cumulative IPC: 0.49874 (Simulation time: 0 hr 36 min 5 sec) 
Heartbeat CPU  0 instructions:  594000001 cycles: 1068109806 heartbeat IPC: 0.60013 cumulative IPC: 0.49891 (Simulation time: 0 hr 36 min 9 sec) 
Heartbeat CPU  0 instructions:  595000000 cycles: 1069779207 heartbeat IPC: 0.59902 cumulative IPC: 0.49908 (Simulation time: 0 hr 36 min 12 sec) 
Heartbeat CPU  0 instructions:  596000000 cycles: 1071439249 heartbeat IPC: 0.60239 cumulative IPC: 0.49925 (Simulation time: 0 hr 36 min 16 sec) 
Heartbeat CPU  0 instructions:  597000003 cycles: 1073254815 heartbeat IPC: 0.55079 cumulative IPC: 0.49934 (Simulation time: 0 hr 36 min 20 sec) 
Heartbeat CPU  0 instructions:  598000002 cycles: 1074689862 heartbeat IPC: 0.69684 cumulative IPC: 0.49963 (Simulation time: 0 hr 36 min 23 sec) 
Heartbeat CPU  0 instructions:  599000002 cycles: 1076117165 heartbeat IPC: 0.70062 cumulative IPC: 0.49991 (Simulation time: 0 hr 36 min 27 sec) 
Heartbeat CPU  0 instructions:  600000000 cycles: 1077543747 heartbeat IPC: 0.70097 cumulative IPC: 0.50020 (Simulation time: 0 hr 36 min 30 sec) 
Finished CPU 0 instructions: 500000000 cycles: 999599405 cumulative IPC: 0.50020 (Simulation time: 0 hr 36 min 30 sec) 

ChampSim completed all CPUs

[ROI Statistics]
Core_0_instructions 500000000
Core_0_cycles 999599405
Core_0_IPC 0.50020

Core_0_branch_prediction_accuracy 99.79948
Core_0_branch_MPKI 0.03552
Core_0_average_ROB_occupancy_at_mispredict 248.33352

Core_0_L1D_total_access 242609949
Core_0_L1D_total_hit 230331683
Core_0_L1D_total_miss 12278266
Core_0_L1D_loads 218310853
Core_0_L1D_load_hit 206208088
Core_0_L1D_load_miss 12102765
Core_0_L1D_RFOs 24299096
Core_0_L1D_RFO_hit 24123595
Core_0_L1D_RFO_miss 175501
Core_0_L1D_prefetches 0
Core_0_L1D_prefetch_hit 0
Core_0_L1D_prefetch_miss 0
Core_0_L1D_writebacks 0
Core_0_L1D_writeback_hit 0
Core_0_L1D_writeback_miss 0
Core_0_L1D_prefetch_requested 0
Core_0_L1D_prefetch_dropped 0
Core_0_L1D_prefetch_issued 0
Core_0_L1D_prefetch_filled 0
Core_0_L1D_prefetch_useful 0
Core_0_L1D_prefetch_useless 0
Core_0_L1D_prefetch_late 0
Core_0_L1D_average_miss_latency 76.99256

Core_0_L1D_rq_access 258718110
Core_0_L1D_rq_forward 0
Core_0_L1D_rq_merged 39535778
Core_0_L1D_rq_to_cache 219182332
Core_0_L1D_rq_full 0

Core_0_L1D_wq_access 25182875
Core_0_L1D_wq_forward 0
Core_0_L1D_wq_merged 212771
Core_0_L1D_wq_to_cache 24970104
Core_0_L1D_wq_full 888567

Core_0_L1D_pq_access 0
Core_0_L1D_pq_forward 0
Core_0_L1D_pq_merged 0
Core_0_L1D_pq_to_cache 0
Core_0_L1D_pq_full 0

Core_0_L1D_acc_epochs 1003540
Core_0_L1D_acc_level_0 1003540
Core_0_L1D_acc_level_1 0
Core_0_L1D_acc_level_2 0
Core_0_L1D_acc_level_3 0
Core_0_L1D_acc_level_4 0
Core_0_L1D_acc_level_5 0
Core_0_L1D_acc_level_6 0
Core_0_L1D_acc_level_7 0
Core_0_L1D_acc_level_8 0
Core_0_L1D_acc_level_9 0

Core_0_L1I_total_access 131628952
Core_0_L1I_total_hit 131628303
Core_0_L1I_total_miss 649
Core_0_L1I_loads 131628952
Core_0_L1I_load_hit 131628303
Core_0_L1I_load_miss 649
Core_0_L1I_RFOs 0
Core_0_L1I_RFO_hit 0
Core_0_L1I_RFO_miss 0
Core_0_L1I_prefetches 0
Core_0_L1I_prefetch_hit 0
Core_0_L1I_prefetch_miss 0
Core_0_L1I_writebacks 0
Core_0_L1I_writeback_hit 0
Core_0_L1I_writeback_miss 0
Core_0_L1I_prefetch_requested 0
Core_0_L1I_prefetch_dropped 0
Core_0_L1I_prefetch_issued 0
Core_0_L1I_prefetch_filled 0
Core_0_L1I_prefetch_useful 0
Core_0_L1I_prefetch_useless 0
Core_0_L1I_prefetch_late 0
Core_0_L1I_average_miss_latency 1146.50847

Core_0_L1I_rq_access 500000002
Core_0_L1I_rq_forward 0
Core_0_L1I_rq_merged 368370462
Core_0_L1I_rq_to_cache 131629540
Core_0_L1I_rq_full 0

Core_0_L1I_wq_access 0
Core_0_L1I_wq_forward 0
Core_0_L1I_wq_merged 0
Core_0_L1I_wq_to_cache 0
Core_0_L1I_wq_full 0

Core_0_L1I_pq_access 0
Core_0_L1I_pq_forward 0
Core_0_L1I_pq_merged 0
Core_0_L1I_pq_to_cache 0
Core_0_L1I_pq_full 0

Core_0_L1I_acc_epochs 1003540
Core_0_L1I_acc_level_0 1003540
Core_0_L1I_acc_level_1 0
Core_0_L1I_acc_level_2 0
Core_0_L1I_acc_level_3 0
Core_0_L1I_acc_level_4 0
Core_0_L1I_acc_level_5 0
Core_0_L1I_acc_level_6 0
Core_0_L1I_acc_level_7 0
Core_0_L1I_acc_level_8 0
Core_0_L1I_acc_level_9 0

Core_0_L2C_total_access 20683924
Core_0_L2C_total_hit 16137977
Core_0_L2C_total_miss 4545947
Core_0_L2C_loads 12103099
Core_0_L2C_load_hit 9536953
Core_0_L2C_load_miss 2566146
Core_0_L2C_RFOs 175463
Core_0_L2C_RFO_hit 4957
Core_0_L2C_RFO_miss 170506
Core_0_L2C_prefetches 5785170
Core_0_L2C_prefetch_hit 3976521
Core_0_L2C_prefetch_miss 1808649
Core_0_L2C_writebacks 2620192
Core_0_L2C_writeback_hit 2619546
Core_0_L2C_writeback_miss 646
Core_0_L2C_prefetch_requested 6995784
Core_0_L2C_prefetch_dropped 0
Core_0_L2C_prefetch_issued 6995784
Core_0_L2C_prefetch_filled 2466176
Core_0_L2C_prefetch_useful 2212484
Core_0_L2C_prefetch_useless 253530
Core_0_L2C_prefetch_late 25331
Core_0_L2C_average_miss_latency 674.95968

Core_0_L2C_rq_access 12278915
Core_0_L2C_rq_forward 0
Core_0_L2C_rq_merged 0
Core_0_L2C_rq_to_cache 12278562
Core_0_L2C_rq_full 0

Core_0_L2C_wq_access 2620192
Core_0_L2C_wq_forward 353
Core_0_L2C_wq_merged 0
Core_0_L2C_wq_to_cache 2620192
Core_0_L2C_wq_full 0

Core_0_L2C_pq_access 6995784
Core_0_L2C_pq_forward 0
Core_0_L2C_pq_merged 0
Core_0_L2C_pq_to_cache 6995784
Core_0_L2C_pq_full 0

Core_0_L2C_acc_epochs 1003540
Core_0_L2C_acc_level_0 487654
Core_0_L2C_acc_level_1 102729
Core_0_L2C_acc_level_2 79994
Core_0_L2C_acc_level_3 55310
Core_0_L2C_acc_level_4 33087
Core_0_L2C_acc_level_5 63748
Core_0_L2C_acc_level_6 32162
Core_0_L2C_acc_level_7 26091
Core_0_L2C_acc_level_8 18111
Core_0_L2C_acc_level_9 104654

Core_0_LLC_total_access 6063364
Core_0_LLC_total_hit 1971508
Core_0_LLC_total_miss 4091856
Core_0_LLC_loads 2540814
Core_0_LLC_load_hit 700229
Core_0_LLC_load_miss 1840585
Core_0_LLC_RFOs 170506
Core_0_LLC_RFO_hit 149898
Core_0_LLC_RFO_miss 20608
Core_0_LLC_prefetches 2273160
Core_0_LLC_prefetch_hit 684226
Core_0_LLC_prefetch_miss 1588934
Core_0_LLC_writebacks 1078884
Core_0_LLC_writeback_hit 437155
Core_0_LLC_writeback_miss 641729
Core_0_LLC_prefetch_requested 0
Core_0_LLC_prefetch_dropped 0
Core_0_LLC_prefetch_issued 0
Core_0_LLC_prefetch_filled 2253245
Core_0_LLC_prefetch_useful 260530
Core_0_LLC_prefetch_useless 1990023
Core_0_LLC_prefetch_late 43324
Core_0_LLC_average_miss_latency 759.37984

Core_0_LLC_rq_access 2711322
Core_0_LLC_rq_forward 0
Core_0_LLC_rq_merged 0
Core_0_LLC_rq_to_cache 2711320
Core_0_LLC_rq_full 0

Core_0_LLC_wq_access 1078884
Core_0_LLC_wq_forward 118
Core_0_LLC_wq_merged 0
Core_0_LLC_wq_to_cache 1078884
Core_0_LLC_wq_full 0

Core_0_LLC_pq_access 2988193
Core_0_LLC_pq_forward 0
Core_0_LLC_pq_merged 0
Core_0_LLC_pq_to_cache 2988077
Core_0_LLC_pq_full 0

Core_0_LLC_acc_epochs 1052289
Core_0_LLC_acc_level_0 865718
Core_0_LLC_acc_level_1 65829
Core_0_LLC_acc_level_2 46804
Core_0_LLC_acc_level_3 23415
Core_0_LLC_acc_level_4 7429
Core_0_LLC_acc_level_5 18605
Core_0_LLC_acc_level_6 5230
Core_0_LLC_acc_level_7 4070
Core_0_LLC_acc_level_8 2402
Core_0_LLC_acc_level_9 12787

Core_0_major_page_fault 0
Core_0_minor_page_fault 102074

[Bingo] PHT Access: 6116416
[Bingo] PHT Hit PC+Addr: 1840153
[Bingo] PHT Hit PC+Offs: 499404
[Bingo] PHT Miss: 3776859
[Bingo] Prefetch PC+Addr: 0
[Bingo] Prefetch PC+Offs: 0
[Bingo] Useful PC+Addr: 0
[Bingo] Useful PC+Offs: 0
[Bingo] Useless PC+Addr: 0
[Bingo] Useless PC+Offs: 0
[Bingo] L1 Prefetch per Region: 0.00000
[Bingo] L2 Prefetch per Region: 3.67233
[Bingo] L3 Prefetch per Region: 0.32935
[Bingo] No Prefetch per Region: 27.99831
[Bingo] Number of Voters Mean: 11.89417
[Bingo] Number of Voters SD: 4.94579

Channel_0_RQ_row_buffer_hit 1320362
Channel_0_RQ_row_buffer_miss 2129757
Channel_0_WQ_row_buffer_hit 244383
Channel_0_WQ_row_buffer_miss 557562
Channel_0_WQ_full 9565
Channel_0_dbus_congested 3075530

avg_congested_cycle 97

DRAM_bw_pochs 4209156
DRAM_bw_level_0 2247928
DRAM_bw_level_1 748612
DRAM_bw_level_2 0
DRAM_bw_level_3 1212616
