*************************************************
   ChampSim Multicore Out-of-Order Simulator
   Last compiled: Dec 11 2024 17:59:53
*************************************************
parsing config file: /home/functionmain/桌面/Pythia/config/mlop.ini

trace_0 /home/functionmain/桌面/Pythia/traces/459.GemsFDTD-1211B.champsimtrace.xz
adding L2C_PREFETCHER: MLOP
Initialize SHIP state
warmup_instructions 100000000
simulation_instructions 500000000
champsim_seed 263
measure_ipc 0
measure_ipc_epoch 1000
measure_dram_bw 1
measure_dram_bw_epoch 256
measure_cache_acc 1
measure_cache_acc_epoch 1024
l1d_perfect 0
l2c_perfect 0
llc_perfect 0
l1d_semi_perfect 0
l2c_semi_perfect 0
llc_semi_perfect 0
semi_perfect_cache_page_buffer_size 64

num_cpus 1
cpu_freq 4000
dram_io_freq 9600
page_size 4096
block_size 64
max_read_per_cycle 8
max_fill_per_cycle 1
dram_channels 1
log2_dram_channels 0
dram_ranks 1
dram_banks 8
dram_rows 65536
dram_columns 128
dram_row_size 8
dram_size 4096
dram_pages 1048576

fetch_width 6
decode_width 6
exec_width 4
lq_width 2
sq_width 2
retire_width 4
scheduler_size 128
branch_mispredict_penalty 20
rob_size 256
lq_size 72
sq_size 56
num_instr_destinations_sparc 4
num_instr_destinations 2
num_instr_sources 4

itlb_set 16
itlb_way 8
itlb_rq_size 16
itlb_wq_size 16
itlb_pq_size 0
itlb_mshr_size 8
itlb_latency 1

dtlb_set 16
dtlb_way 4
dtlb_rq_size 16
dtlb_wq_size 16
dtlb_pq_size 0
dtlb_mshr_size 8
dtlb_latency 1

stlb_set 128
stlb_way 12
stlb_rq_size 32
stlb_wq_size 32
stlb_pq_size 0
stlb_mshr_size 16
stlb_latency 8

l1i_size 32
l1i_set 64
l1i_way 8
l1i_rq_size 64
l1i_wq_size 64
l1i_pq_size 8
l1i_mshr_size 8
l1i_latency 1

l1d_size 32
l1d_set 64
l1d_way 8
l1d_rq_size 64
l1d_wq_size 64
l1d_pq_size 8
l1d_mshr_size 16
l1d_latency 4

l2c_size 256
l2c_set 512
l2c_way 8
l2c_rq_size 32
l2c_wq_size 32
l2c_pq_size 32
l2c_mshr_size 32
l2c_latency 10

llc_size 2048
llc_set 2048
llc_way 16
llc_rq_size 32
llc_wq_size 32
llc_pq_size 32
llc_mshr_size 64
llc_latency 20

dram_channel_width 8
dram_wq_size 64
dram_rq_size 64
tRP 15
tRCD 15
tCAS 12.5
dram_dbus_turn_around_time 30
dram_write_high_wm 56
dram_write_low_wm 48
min_dram_writes_per_switch 16
dram_mtps 9600
dram_dbus_return_time 3

mlop_pref_degree 16
mlop_num_updates 500
mlop_l1d_thresh 2
mlop_l2c_thresh 0.75
mlop_llc_thresh 0.3
mlop_debug_level 0
mlop_blocks_in_cache 4096
mlop_blocks_in_zone 64
mlop_amt_size 2048
mlop_PF_DEGREE 16
mlop_NUM_UPDATES 500
mlop_L1D_THRESH 1000
mlop_L2C_THRESH 375
mlop_LLC_THRESH 150
mlop_ORIGIN 63
mlop_MAX_OFFSET 63
mlop_MIN_OFFSET -63
mlop_ORIGIN 63
mlop_NUM_OFFSETS 127


Heartbeat CPU  0 instructions:    1000003 cycles:     792441 heartbeat IPC: 1.26193 cumulative IPC: 1.26193 (Simulation time: 0 hr 0 min 3 sec) 
Heartbeat CPU  0 instructions:    2000002 cycles:    1584234 heartbeat IPC: 1.26296 cumulative IPC: 1.26244 (Simulation time: 0 hr 0 min 5 sec) 
Heartbeat CPU  0 instructions:    3000003 cycles:    2376045 heartbeat IPC: 1.26293 cumulative IPC: 1.26260 (Simulation time: 0 hr 0 min 8 sec) 
Heartbeat CPU  0 instructions:    4000000 cycles:    3167927 heartbeat IPC: 1.26281 cumulative IPC: 1.26266 (Simulation time: 0 hr 0 min 10 sec) 
Heartbeat CPU  0 instructions:    5000000 cycles:    3959823 heartbeat IPC: 1.26279 cumulative IPC: 1.26268 (Simulation time: 0 hr 0 min 13 sec) 
Heartbeat CPU  0 instructions:    6000002 cycles:    4751679 heartbeat IPC: 1.26286 cumulative IPC: 1.26271 (Simulation time: 0 hr 0 min 15 sec) 
Heartbeat CPU  0 instructions:    7000000 cycles:    5543449 heartbeat IPC: 1.26299 cumulative IPC: 1.26275 (Simulation time: 0 hr 0 min 18 sec) 
Heartbeat CPU  0 instructions:    8000000 cycles:    6335335 heartbeat IPC: 1.26281 cumulative IPC: 1.26276 (Simulation time: 0 hr 0 min 20 sec) 
Heartbeat CPU  0 instructions:    9000000 cycles:    7127151 heartbeat IPC: 1.26292 cumulative IPC: 1.26278 (Simulation time: 0 hr 0 min 23 sec) 
Heartbeat CPU  0 instructions:   10000001 cycles:    7918843 heartbeat IPC: 1.26312 cumulative IPC: 1.26281 (Simulation time: 0 hr 0 min 25 sec) 
Heartbeat CPU  0 instructions:   11000000 cycles:    8710444 heartbeat IPC: 1.26326 cumulative IPC: 1.26285 (Simulation time: 0 hr 0 min 28 sec) 
Heartbeat CPU  0 instructions:   12000000 cycles:    9502292 heartbeat IPC: 1.26287 cumulative IPC: 1.26285 (Simulation time: 0 hr 0 min 30 sec) 
Heartbeat CPU  0 instructions:   13000000 cycles:   10294149 heartbeat IPC: 1.26285 cumulative IPC: 1.26285 (Simulation time: 0 hr 0 min 33 sec) 
Heartbeat CPU  0 instructions:   14000002 cycles:   11085967 heartbeat IPC: 1.26292 cumulative IPC: 1.26286 (Simulation time: 0 hr 0 min 35 sec) 
Heartbeat CPU  0 instructions:   15000000 cycles:   11877836 heartbeat IPC: 1.26283 cumulative IPC: 1.26286 (Simulation time: 0 hr 0 min 38 sec) 
Heartbeat CPU  0 instructions:   16000000 cycles:   12669646 heartbeat IPC: 1.26293 cumulative IPC: 1.26286 (Simulation time: 0 hr 0 min 40 sec) 
Heartbeat CPU  0 instructions:   17000001 cycles:   13461540 heartbeat IPC: 1.26280 cumulative IPC: 1.26286 (Simulation time: 0 hr 0 min 43 sec) 
Heartbeat CPU  0 instructions:   18000002 cycles:   14253283 heartbeat IPC: 1.26304 cumulative IPC: 1.26287 (Simulation time: 0 hr 0 min 45 sec) 
Heartbeat CPU  0 instructions:   19000000 cycles:   15045110 heartbeat IPC: 1.26290 cumulative IPC: 1.26287 (Simulation time: 0 hr 0 min 48 sec) 
Heartbeat CPU  0 instructions:   20000000 cycles:   15836631 heartbeat IPC: 1.26339 cumulative IPC: 1.26289 (Simulation time: 0 hr 0 min 51 sec) 
Heartbeat CPU  0 instructions:   21000000 cycles:   16628290 heartbeat IPC: 1.26317 cumulative IPC: 1.26291 (Simulation time: 0 hr 0 min 53 sec) 
Heartbeat CPU  0 instructions:   22000003 cycles:   17420127 heartbeat IPC: 1.26289 cumulative IPC: 1.26291 (Simulation time: 0 hr 0 min 56 sec) 
Heartbeat CPU  0 instructions:   23000000 cycles:   18212006 heartbeat IPC: 1.26282 cumulative IPC: 1.26290 (Simulation time: 0 hr 0 min 58 sec) 
Heartbeat CPU  0 instructions:   24000000 cycles:   19003839 heartbeat IPC: 1.26289 cumulative IPC: 1.26290 (Simulation time: 0 hr 1 min 1 sec) 
Heartbeat CPU  0 instructions:   25000001 cycles:   19795784 heartbeat IPC: 1.26272 cumulative IPC: 1.26290 (Simulation time: 0 hr 1 min 3 sec) 
Heartbeat CPU  0 instructions:   26000002 cycles:   20587614 heartbeat IPC: 1.26290 cumulative IPC: 1.26290 (Simulation time: 0 hr 1 min 6 sec) 
Heartbeat CPU  0 instructions:   27000001 cycles:   21379364 heartbeat IPC: 1.26302 cumulative IPC: 1.26290 (Simulation time: 0 hr 1 min 8 sec) 
Heartbeat CPU  0 instructions:   28000000 cycles:   22171291 heartbeat IPC: 1.26274 cumulative IPC: 1.26289 (Simulation time: 0 hr 1 min 11 sec) 
Heartbeat CPU  0 instructions:   29000001 cycles:   22963142 heartbeat IPC: 1.26287 cumulative IPC: 1.26289 (Simulation time: 0 hr 1 min 13 sec) 
Heartbeat CPU  0 instructions:   30000002 cycles:   23754925 heartbeat IPC: 1.26297 cumulative IPC: 1.26290 (Simulation time: 0 hr 1 min 16 sec) 
Heartbeat CPU  0 instructions:   31000001 cycles:   24546607 heartbeat IPC: 1.26313 cumulative IPC: 1.26290 (Simulation time: 0 hr 1 min 18 sec) 
Heartbeat CPU  0 instructions:   32000000 cycles:   25338085 heartbeat IPC: 1.26346 cumulative IPC: 1.26292 (Simulation time: 0 hr 1 min 21 sec) 
Heartbeat CPU  0 instructions:   33000001 cycles:   26130012 heartbeat IPC: 1.26274 cumulative IPC: 1.26292 (Simulation time: 0 hr 1 min 23 sec) 
Heartbeat CPU  0 instructions:   34000003 cycles:   26921765 heartbeat IPC: 1.26302 cumulative IPC: 1.26292 (Simulation time: 0 hr 1 min 26 sec) 
Heartbeat CPU  0 instructions:   35000001 cycles:   27713601 heartbeat IPC: 1.26289 cumulative IPC: 1.26292 (Simulation time: 0 hr 1 min 28 sec) 
Heartbeat CPU  0 instructions:   36000000 cycles:   28505567 heartbeat IPC: 1.26268 cumulative IPC: 1.26291 (Simulation time: 0 hr 1 min 31 sec) 
Heartbeat CPU  0 instructions:   37000000 cycles:   29297461 heartbeat IPC: 1.26280 cumulative IPC: 1.26291 (Simulation time: 0 hr 1 min 34 sec) 
Heartbeat CPU  0 instructions:   38000000 cycles:   30089244 heartbeat IPC: 1.26297 cumulative IPC: 1.26291 (Simulation time: 0 hr 1 min 36 sec) 
Heartbeat CPU  0 instructions:   39000001 cycles:   30881023 heartbeat IPC: 1.26298 cumulative IPC: 1.26291 (Simulation time: 0 hr 1 min 39 sec) 
Heartbeat CPU  0 instructions:   40000000 cycles:   31663557 heartbeat IPC: 1.27790 cumulative IPC: 1.26328 (Simulation time: 0 hr 1 min 41 sec) 
Heartbeat CPU  0 instructions:   41000001 cycles:   32436149 heartbeat IPC: 1.29435 cumulative IPC: 1.26402 (Simulation time: 0 hr 1 min 44 sec) 
Heartbeat CPU  0 instructions:   42000003 cycles:   33208687 heartbeat IPC: 1.29444 cumulative IPC: 1.26473 (Simulation time: 0 hr 1 min 47 sec) 
Heartbeat CPU  0 instructions:   43000001 cycles:   33984118 heartbeat IPC: 1.28960 cumulative IPC: 1.26530 (Simulation time: 0 hr 1 min 49 sec) 
Heartbeat CPU  0 instructions:   44000000 cycles:   34775641 heartbeat IPC: 1.26339 cumulative IPC: 1.26525 (Simulation time: 0 hr 1 min 52 sec) 
Heartbeat CPU  0 instructions:   45000001 cycles:   35566994 heartbeat IPC: 1.26366 cumulative IPC: 1.26522 (Simulation time: 0 hr 1 min 55 sec) 
Heartbeat CPU  0 instructions:   46000003 cycles:   36358584 heartbeat IPC: 1.26328 cumulative IPC: 1.26518 (Simulation time: 0 hr 1 min 57 sec) 
Heartbeat CPU  0 instructions:   47000001 cycles:   37149882 heartbeat IPC: 1.26374 cumulative IPC: 1.26515 (Simulation time: 0 hr 2 min 0 sec) 
Heartbeat CPU  0 instructions:   48000000 cycles:   37941294 heartbeat IPC: 1.26356 cumulative IPC: 1.26511 (Simulation time: 0 hr 2 min 2 sec) 
Heartbeat CPU  0 instructions:   49000001 cycles:   38732490 heartbeat IPC: 1.26391 cumulative IPC: 1.26509 (Simulation time: 0 hr 2 min 5 sec) 
Heartbeat CPU  0 instructions:   50000003 cycles:   39523679 heartbeat IPC: 1.26392 cumulative IPC: 1.26506 (Simulation time: 0 hr 2 min 7 sec) 
Heartbeat CPU  0 instructions:   51000001 cycles:   40315249 heartbeat IPC: 1.26331 cumulative IPC: 1.26503 (Simulation time: 0 hr 2 min 10 sec) 
Heartbeat CPU  0 instructions:   52000000 cycles:   41106703 heartbeat IPC: 1.26350 cumulative IPC: 1.26500 (Simulation time: 0 hr 2 min 12 sec) 
Heartbeat CPU  0 instructions:   53000003 cycles:   41898262 heartbeat IPC: 1.26333 cumulative IPC: 1.26497 (Simulation time: 0 hr 2 min 15 sec) 
Heartbeat CPU  0 instructions:   54000002 cycles:   42689771 heartbeat IPC: 1.26341 cumulative IPC: 1.26494 (Simulation time: 0 hr 2 min 17 sec) 
Heartbeat CPU  0 instructions:   55000002 cycles:   43481074 heartbeat IPC: 1.26374 cumulative IPC: 1.26492 (Simulation time: 0 hr 2 min 20 sec) 
Heartbeat CPU  0 instructions:   56000000 cycles:   44272373 heartbeat IPC: 1.26374 cumulative IPC: 1.26490 (Simulation time: 0 hr 2 min 22 sec) 
Heartbeat CPU  0 instructions:   57000000 cycles:   45063954 heartbeat IPC: 1.26329 cumulative IPC: 1.26487 (Simulation time: 0 hr 2 min 25 sec) 
Heartbeat CPU  0 instructions:   58000002 cycles:   45855284 heartbeat IPC: 1.26370 cumulative IPC: 1.26485 (Simulation time: 0 hr 2 min 27 sec) 
Heartbeat CPU  0 instructions:   59000000 cycles:   46646764 heartbeat IPC: 1.26345 cumulative IPC: 1.26483 (Simulation time: 0 hr 2 min 30 sec) 
Heartbeat CPU  0 instructions:   60000000 cycles:   47438064 heartbeat IPC: 1.26374 cumulative IPC: 1.26481 (Simulation time: 0 hr 2 min 32 sec) 
Heartbeat CPU  0 instructions:   61000000 cycles:   48229174 heartbeat IPC: 1.26405 cumulative IPC: 1.26479 (Simulation time: 0 hr 2 min 35 sec) 
Heartbeat CPU  0 instructions:   62000002 cycles:   49020827 heartbeat IPC: 1.26318 cumulative IPC: 1.26477 (Simulation time: 0 hr 2 min 38 sec) 
Heartbeat CPU  0 instructions:   63000000 cycles:   49812334 heartbeat IPC: 1.26341 cumulative IPC: 1.26475 (Simulation time: 0 hr 2 min 40 sec) 
Heartbeat CPU  0 instructions:   64000000 cycles:   50603708 heartbeat IPC: 1.26363 cumulative IPC: 1.26473 (Simulation time: 0 hr 2 min 43 sec) 
Heartbeat CPU  0 instructions:   65000000 cycles:   51395269 heartbeat IPC: 1.26333 cumulative IPC: 1.26471 (Simulation time: 0 hr 2 min 45 sec) 
Heartbeat CPU  0 instructions:   66000003 cycles:   52186654 heartbeat IPC: 1.26361 cumulative IPC: 1.26469 (Simulation time: 0 hr 2 min 48 sec) 
Heartbeat CPU  0 instructions:   67000000 cycles:   52978037 heartbeat IPC: 1.26361 cumulative IPC: 1.26468 (Simulation time: 0 hr 2 min 50 sec) 
Heartbeat CPU  0 instructions:   68000000 cycles:   53769303 heartbeat IPC: 1.26380 cumulative IPC: 1.26466 (Simulation time: 0 hr 2 min 53 sec) 
Heartbeat CPU  0 instructions:   69000001 cycles:   54560756 heartbeat IPC: 1.26350 cumulative IPC: 1.26465 (Simulation time: 0 hr 2 min 55 sec) 
Heartbeat CPU  0 instructions:   70000002 cycles:   55352064 heartbeat IPC: 1.26373 cumulative IPC: 1.26463 (Simulation time: 0 hr 2 min 58 sec) 
Heartbeat CPU  0 instructions:   71000001 cycles:   56143474 heartbeat IPC: 1.26357 cumulative IPC: 1.26462 (Simulation time: 0 hr 3 min 0 sec) 
Heartbeat CPU  0 instructions:   72000000 cycles:   56934686 heartbeat IPC: 1.26388 cumulative IPC: 1.26461 (Simulation time: 0 hr 3 min 3 sec) 
Heartbeat CPU  0 instructions:   73000003 cycles:   57726431 heartbeat IPC: 1.26304 cumulative IPC: 1.26459 (Simulation time: 0 hr 3 min 5 sec) 
Heartbeat CPU  0 instructions:   74000003 cycles:   58517731 heartbeat IPC: 1.26374 cumulative IPC: 1.26457 (Simulation time: 0 hr 3 min 8 sec) 
Heartbeat CPU  0 instructions:   75000001 cycles:   59309126 heartbeat IPC: 1.26359 cumulative IPC: 1.26456 (Simulation time: 0 hr 3 min 11 sec) 
Heartbeat CPU  0 instructions:   76000000 cycles:   60100668 heartbeat IPC: 1.26336 cumulative IPC: 1.26454 (Simulation time: 0 hr 3 min 13 sec) 
Heartbeat CPU  0 instructions:   77000002 cycles:   60891982 heartbeat IPC: 1.26372 cumulative IPC: 1.26453 (Simulation time: 0 hr 3 min 16 sec) 
Heartbeat CPU  0 instructions:   78000001 cycles:   61683398 heartbeat IPC: 1.26356 cumulative IPC: 1.26452 (Simulation time: 0 hr 3 min 18 sec) 
Heartbeat CPU  0 instructions:   79000000 cycles:   62474677 heartbeat IPC: 1.26378 cumulative IPC: 1.26451 (Simulation time: 0 hr 3 min 21 sec) 
Heartbeat CPU  0 instructions:   80000000 cycles:   63266101 heartbeat IPC: 1.26355 cumulative IPC: 1.26450 (Simulation time: 0 hr 3 min 23 sec) 
Heartbeat CPU  0 instructions:   81000000 cycles:   64057453 heartbeat IPC: 1.26366 cumulative IPC: 1.26449 (Simulation time: 0 hr 3 min 26 sec) 
Heartbeat CPU  0 instructions:   82000002 cycles:   64848657 heartbeat IPC: 1.26390 cumulative IPC: 1.26448 (Simulation time: 0 hr 3 min 28 sec) 
Heartbeat CPU  0 instructions:   83000000 cycles:   65640014 heartbeat IPC: 1.26365 cumulative IPC: 1.26447 (Simulation time: 0 hr 3 min 31 sec) 
Heartbeat CPU  0 instructions:   84000000 cycles:   66431412 heartbeat IPC: 1.26359 cumulative IPC: 1.26446 (Simulation time: 0 hr 3 min 33 sec) 
Heartbeat CPU  0 instructions:   85000000 cycles:   67222888 heartbeat IPC: 1.26346 cumulative IPC: 1.26445 (Simulation time: 0 hr 3 min 36 sec) 
Heartbeat CPU  0 instructions:   86000002 cycles:   68014196 heartbeat IPC: 1.26373 cumulative IPC: 1.26444 (Simulation time: 0 hr 3 min 38 sec) 
Heartbeat CPU  0 instructions:   87000000 cycles:   68805589 heartbeat IPC: 1.26359 cumulative IPC: 1.26443 (Simulation time: 0 hr 3 min 41 sec) 
Heartbeat CPU  0 instructions:   88000000 cycles:   69596785 heartbeat IPC: 1.26391 cumulative IPC: 1.26443 (Simulation time: 0 hr 3 min 43 sec) 
Heartbeat CPU  0 instructions:   89000000 cycles:   70388227 heartbeat IPC: 1.26352 cumulative IPC: 1.26442 (Simulation time: 0 hr 3 min 46 sec) 
Heartbeat CPU  0 instructions:   90000003 cycles:   71179492 heartbeat IPC: 1.26380 cumulative IPC: 1.26441 (Simulation time: 0 hr 3 min 49 sec) 
Heartbeat CPU  0 instructions:   91000000 cycles:   71970758 heartbeat IPC: 1.26379 cumulative IPC: 1.26440 (Simulation time: 0 hr 3 min 51 sec) 
Heartbeat CPU  0 instructions:   92000000 cycles:   72762006 heartbeat IPC: 1.26383 cumulative IPC: 1.26440 (Simulation time: 0 hr 3 min 54 sec) 
Heartbeat CPU  0 instructions:   93000001 cycles:   73553265 heartbeat IPC: 1.26381 cumulative IPC: 1.26439 (Simulation time: 0 hr 3 min 56 sec) 
Heartbeat CPU  0 instructions:   94000001 cycles:   74344788 heartbeat IPC: 1.26339 cumulative IPC: 1.26438 (Simulation time: 0 hr 3 min 59 sec) 
Heartbeat CPU  0 instructions:   95000000 cycles:   75136063 heartbeat IPC: 1.26378 cumulative IPC: 1.26437 (Simulation time: 0 hr 4 min 1 sec) 
Heartbeat CPU  0 instructions:   96000000 cycles:   75927379 heartbeat IPC: 1.26372 cumulative IPC: 1.26437 (Simulation time: 0 hr 4 min 4 sec) 
Heartbeat CPU  0 instructions:   97000003 cycles:   76718886 heartbeat IPC: 1.26342 cumulative IPC: 1.26436 (Simulation time: 0 hr 4 min 6 sec) 
Heartbeat CPU  0 instructions:   98000003 cycles:   77510205 heartbeat IPC: 1.26371 cumulative IPC: 1.26435 (Simulation time: 0 hr 4 min 9 sec) 
Heartbeat CPU  0 instructions:   99000003 cycles:   78301499 heartbeat IPC: 1.26375 cumulative IPC: 1.26434 (Simulation time: 0 hr 4 min 11 sec) 
Heartbeat CPU  0 instructions:  100000000 cycles:   79092775 heartbeat IPC: 1.26378 cumulative IPC: 1.26434 (Simulation time: 0 hr 4 min 14 sec) 

Warmup complete CPU  0 instructions:  100000001 cycles:   79092776 (Simulation time: 0 hr 4 min 14 sec) 

Heartbeat CPU  0 instructions:  101000001 cycles:   80689916 heartbeat IPC: 0.62612 cumulative IPC: 0.62612 (Simulation time: 0 hr 4 min 17 sec) 
Heartbeat CPU  0 instructions:  102000002 cycles:   82291162 heartbeat IPC: 0.62451 cumulative IPC: 0.62532 (Simulation time: 0 hr 4 min 20 sec) 
Heartbeat CPU  0 instructions:  103000003 cycles:   83883203 heartbeat IPC: 0.62813 cumulative IPC: 0.62625 (Simulation time: 0 hr 4 min 23 sec) 
Heartbeat CPU  0 instructions:  104000000 cycles:   85483736 heartbeat IPC: 0.62479 cumulative IPC: 0.62588 (Simulation time: 0 hr 4 min 26 sec) 
Heartbeat CPU  0 instructions:  105000001 cycles:   87088810 heartbeat IPC: 0.62302 cumulative IPC: 0.62531 (Simulation time: 0 hr 4 min 29 sec) 
Heartbeat CPU  0 instructions:  106000002 cycles:   88697196 heartbeat IPC: 0.62174 cumulative IPC: 0.62471 (Simulation time: 0 hr 4 min 32 sec) 
Heartbeat CPU  0 instructions:  107000000 cycles:   90299266 heartbeat IPC: 0.62419 cumulative IPC: 0.62464 (Simulation time: 0 hr 4 min 35 sec) 
Heartbeat CPU  0 instructions:  108000000 cycles:   91905411 heartbeat IPC: 0.62261 cumulative IPC: 0.62438 (Simulation time: 0 hr 4 min 39 sec) 
Heartbeat CPU  0 instructions:  109000000 cycles:   93501908 heartbeat IPC: 0.62637 cumulative IPC: 0.62460 (Simulation time: 0 hr 4 min 42 sec) 
Heartbeat CPU  0 instructions:  110000002 cycles:   95104188 heartbeat IPC: 0.62411 cumulative IPC: 0.62455 (Simulation time: 0 hr 4 min 45 sec) 
Heartbeat CPU  0 instructions:  111000001 cycles:   96705601 heartbeat IPC: 0.62445 cumulative IPC: 0.62454 (Simulation time: 0 hr 4 min 48 sec) 
Heartbeat CPU  0 instructions:  112000000 cycles:   98306096 heartbeat IPC: 0.62481 cumulative IPC: 0.62457 (Simulation time: 0 hr 4 min 51 sec) 
Heartbeat CPU  0 instructions:  113000000 cycles:   99903265 heartbeat IPC: 0.62611 cumulative IPC: 0.62468 (Simulation time: 0 hr 4 min 54 sec) 
Heartbeat CPU  0 instructions:  114000002 cycles:  101514488 heartbeat IPC: 0.62065 cumulative IPC: 0.62439 (Simulation time: 0 hr 4 min 57 sec) 
Heartbeat CPU  0 instructions:  115000002 cycles:  103108034 heartbeat IPC: 0.62753 cumulative IPC: 0.62460 (Simulation time: 0 hr 5 min 0 sec) 
Heartbeat CPU  0 instructions:  116000000 cycles:  104711397 heartbeat IPC: 0.62369 cumulative IPC: 0.62455 (Simulation time: 0 hr 5 min 3 sec) 
Heartbeat CPU  0 instructions:  117000001 cycles:  106306288 heartbeat IPC: 0.62700 cumulative IPC: 0.62469 (Simulation time: 0 hr 5 min 6 sec) 
Heartbeat CPU  0 instructions:  118000000 cycles:  107909592 heartbeat IPC: 0.62371 cumulative IPC: 0.62464 (Simulation time: 0 hr 5 min 10 sec) 
Heartbeat CPU  0 instructions:  119000000 cycles:  109510721 heartbeat IPC: 0.62456 cumulative IPC: 0.62463 (Simulation time: 0 hr 5 min 13 sec) 
Heartbeat CPU  0 instructions:  120000000 cycles:  111103752 heartbeat IPC: 0.62773 cumulative IPC: 0.62479 (Simulation time: 0 hr 5 min 16 sec) 
Heartbeat CPU  0 instructions:  121000003 cycles:  112696810 heartbeat IPC: 0.62773 cumulative IPC: 0.62493 (Simulation time: 0 hr 5 min 19 sec) 
Heartbeat CPU  0 instructions:  122000001 cycles:  114291664 heartbeat IPC: 0.62702 cumulative IPC: 0.62502 (Simulation time: 0 hr 5 min 22 sec) 
Heartbeat CPU  0 instructions:  123000000 cycles:  115892188 heartbeat IPC: 0.62479 cumulative IPC: 0.62501 (Simulation time: 0 hr 5 min 25 sec) 
Heartbeat CPU  0 instructions:  124000000 cycles:  117481397 heartbeat IPC: 0.62924 cumulative IPC: 0.62519 (Simulation time: 0 hr 5 min 28 sec) 
Heartbeat CPU  0 instructions:  125000001 cycles:  119079537 heartbeat IPC: 0.62573 cumulative IPC: 0.62521 (Simulation time: 0 hr 5 min 31 sec) 
Heartbeat CPU  0 instructions:  126000001 cycles:  120685246 heartbeat IPC: 0.62278 cumulative IPC: 0.62511 (Simulation time: 0 hr 5 min 34 sec) 
Heartbeat CPU  0 instructions:  127000003 cycles:  122282194 heartbeat IPC: 0.62620 cumulative IPC: 0.62515 (Simulation time: 0 hr 5 min 37 sec) 
Heartbeat CPU  0 instructions:  128000000 cycles:  123894016 heartbeat IPC: 0.62041 cumulative IPC: 0.62498 (Simulation time: 0 hr 5 min 40 sec) 
Heartbeat CPU  0 instructions:  129000003 cycles:  125495162 heartbeat IPC: 0.62455 cumulative IPC: 0.62497 (Simulation time: 0 hr 5 min 43 sec) 
Heartbeat CPU  0 instructions:  130000001 cycles:  127089553 heartbeat IPC: 0.62720 cumulative IPC: 0.62504 (Simulation time: 0 hr 5 min 47 sec) 
Heartbeat CPU  0 instructions:  131000000 cycles:  128690999 heartbeat IPC: 0.62444 cumulative IPC: 0.62502 (Simulation time: 0 hr 5 min 50 sec) 
Heartbeat CPU  0 instructions:  132000000 cycles:  130286686 heartbeat IPC: 0.62669 cumulative IPC: 0.62507 (Simulation time: 0 hr 5 min 53 sec) 
Heartbeat CPU  0 instructions:  133000000 cycles:  131876589 heartbeat IPC: 0.62897 cumulative IPC: 0.62519 (Simulation time: 0 hr 5 min 56 sec) 
Heartbeat CPU  0 instructions:  134000002 cycles:  133486723 heartbeat IPC: 0.62107 cumulative IPC: 0.62507 (Simulation time: 0 hr 5 min 59 sec) 
Heartbeat CPU  0 instructions:  135000003 cycles:  135084250 heartbeat IPC: 0.62597 cumulative IPC: 0.62510 (Simulation time: 0 hr 6 min 2 sec) 
Heartbeat CPU  0 instructions:  136000000 cycles:  136685045 heartbeat IPC: 0.62469 cumulative IPC: 0.62508 (Simulation time: 0 hr 6 min 5 sec) 
Heartbeat CPU  0 instructions:  137000000 cycles:  138294346 heartbeat IPC: 0.62139 cumulative IPC: 0.62498 (Simulation time: 0 hr 6 min 8 sec) 
Heartbeat CPU  0 instructions:  138000000 cycles:  139894941 heartbeat IPC: 0.62477 cumulative IPC: 0.62498 (Simulation time: 0 hr 6 min 11 sec) 
Heartbeat CPU  0 instructions:  139000002 cycles:  141493003 heartbeat IPC: 0.62576 cumulative IPC: 0.62500 (Simulation time: 0 hr 6 min 14 sec) 
Heartbeat CPU  0 instructions:  140000000 cycles:  143090726 heartbeat IPC: 0.62589 cumulative IPC: 0.62502 (Simulation time: 0 hr 6 min 17 sec) 
Heartbeat CPU  0 instructions:  141000002 cycles:  144690329 heartbeat IPC: 0.62516 cumulative IPC: 0.62502 (Simulation time: 0 hr 6 min 20 sec) 
Heartbeat CPU  0 instructions:  142000000 cycles:  146286884 heartbeat IPC: 0.62635 cumulative IPC: 0.62505 (Simulation time: 0 hr 6 min 24 sec) 
Heartbeat CPU  0 instructions:  143000003 cycles:  147884818 heartbeat IPC: 0.62581 cumulative IPC: 0.62507 (Simulation time: 0 hr 6 min 27 sec) 
Heartbeat CPU  0 instructions:  144000000 cycles:  149485048 heartbeat IPC: 0.62491 cumulative IPC: 0.62507 (Simulation time: 0 hr 6 min 30 sec) 
Heartbeat CPU  0 instructions:  145000003 cycles:  151081298 heartbeat IPC: 0.62647 cumulative IPC: 0.62510 (Simulation time: 0 hr 6 min 33 sec) 
Heartbeat CPU  0 instructions:  146000001 cycles:  152671876 heartbeat IPC: 0.62870 cumulative IPC: 0.62518 (Simulation time: 0 hr 6 min 36 sec) 
Heartbeat CPU  0 instructions:  147000003 cycles:  154266545 heartbeat IPC: 0.62709 cumulative IPC: 0.62522 (Simulation time: 0 hr 6 min 39 sec) 
Heartbeat CPU  0 instructions:  148000000 cycles:  155854522 heartbeat IPC: 0.62973 cumulative IPC: 0.62531 (Simulation time: 0 hr 6 min 42 sec) 
Heartbeat CPU  0 instructions:  149000003 cycles:  157440017 heartbeat IPC: 0.63072 cumulative IPC: 0.62542 (Simulation time: 0 hr 6 min 45 sec) 
Heartbeat CPU  0 instructions:  150000001 cycles:  159027394 heartbeat IPC: 0.62997 cumulative IPC: 0.62551 (Simulation time: 0 hr 6 min 48 sec) 
Heartbeat CPU  0 instructions:  151000003 cycles:  160603676 heartbeat IPC: 0.63441 cumulative IPC: 0.62568 (Simulation time: 0 hr 6 min 51 sec) 
Heartbeat CPU  0 instructions:  152000000 cycles:  162175710 heartbeat IPC: 0.63612 cumulative IPC: 0.62588 (Simulation time: 0 hr 6 min 54 sec) 
Heartbeat CPU  0 instructions:  153000003 cycles:  163745229 heartbeat IPC: 0.63714 cumulative IPC: 0.62609 (Simulation time: 0 hr 6 min 58 sec) 
Heartbeat CPU  0 instructions:  154000001 cycles:  165322842 heartbeat IPC: 0.63387 cumulative IPC: 0.62623 (Simulation time: 0 hr 7 min 1 sec) 
Heartbeat CPU  0 instructions:  155000001 cycles:  166900855 heartbeat IPC: 0.63371 cumulative IPC: 0.62637 (Simulation time: 0 hr 7 min 4 sec) 
Heartbeat CPU  0 instructions:  156000000 cycles:  168482394 heartbeat IPC: 0.63229 cumulative IPC: 0.62647 (Simulation time: 0 hr 7 min 7 sec) 
Heartbeat CPU  0 instructions:  157000001 cycles:  170067704 heartbeat IPC: 0.63079 cumulative IPC: 0.62655 (Simulation time: 0 hr 7 min 10 sec) 
Heartbeat CPU  0 instructions:  158000003 cycles:  171658784 heartbeat IPC: 0.62851 cumulative IPC: 0.62658 (Simulation time: 0 hr 7 min 13 sec) 
Heartbeat CPU  0 instructions:  159000003 cycles:  173240512 heartbeat IPC: 0.63222 cumulative IPC: 0.62667 (Simulation time: 0 hr 7 min 16 sec) 
Heartbeat CPU  0 instructions:  160000000 cycles:  174821250 heartbeat IPC: 0.63261 cumulative IPC: 0.62677 (Simulation time: 0 hr 7 min 19 sec) 
Heartbeat CPU  0 instructions:  161000002 cycles:  176395227 heartbeat IPC: 0.63533 cumulative IPC: 0.62691 (Simulation time: 0 hr 7 min 22 sec) 
Heartbeat CPU  0 instructions:  162000000 cycles:  177979170 heartbeat IPC: 0.63133 cumulative IPC: 0.62698 (Simulation time: 0 hr 7 min 25 sec) 
Heartbeat CPU  0 instructions:  163000000 cycles:  179555142 heartbeat IPC: 0.63453 cumulative IPC: 0.62710 (Simulation time: 0 hr 7 min 28 sec) 
Heartbeat CPU  0 instructions:  164000000 cycles:  181129652 heartbeat IPC: 0.63512 cumulative IPC: 0.62722 (Simulation time: 0 hr 7 min 31 sec) 
Heartbeat CPU  0 instructions:  165000002 cycles:  182710176 heartbeat IPC: 0.63270 cumulative IPC: 0.62731 (Simulation time: 0 hr 7 min 34 sec) 
Heartbeat CPU  0 instructions:  166000003 cycles:  184294090 heartbeat IPC: 0.63135 cumulative IPC: 0.62737 (Simulation time: 0 hr 7 min 37 sec) 
Heartbeat CPU  0 instructions:  167000002 cycles:  185869981 heartbeat IPC: 0.63456 cumulative IPC: 0.62747 (Simulation time: 0 hr 7 min 40 sec) 
Heartbeat CPU  0 instructions:  168000000 cycles:  187445924 heartbeat IPC: 0.63454 cumulative IPC: 0.62758 (Simulation time: 0 hr 7 min 44 sec) 
Heartbeat CPU  0 instructions:  169000001 cycles:  189029371 heartbeat IPC: 0.63153 cumulative IPC: 0.62763 (Simulation time: 0 hr 7 min 47 sec) 
Heartbeat CPU  0 instructions:  170000000 cycles:  190615665 heartbeat IPC: 0.63040 cumulative IPC: 0.62767 (Simulation time: 0 hr 7 min 50 sec) 
Heartbeat CPU  0 instructions:  171000003 cycles:  192202172 heartbeat IPC: 0.63032 cumulative IPC: 0.62771 (Simulation time: 0 hr 7 min 53 sec) 
Heartbeat CPU  0 instructions:  172000000 cycles:  193785266 heartbeat IPC: 0.63167 cumulative IPC: 0.62777 (Simulation time: 0 hr 7 min 56 sec) 
Heartbeat CPU  0 instructions:  173000000 cycles:  195365957 heartbeat IPC: 0.63263 cumulative IPC: 0.62783 (Simulation time: 0 hr 7 min 59 sec) 
Heartbeat CPU  0 instructions:  174000001 cycles:  196939920 heartbeat IPC: 0.63534 cumulative IPC: 0.62793 (Simulation time: 0 hr 8 min 2 sec) 
Heartbeat CPU  0 instructions:  175000003 cycles:  198514669 heartbeat IPC: 0.63502 cumulative IPC: 0.62803 (Simulation time: 0 hr 8 min 5 sec) 
Heartbeat CPU  0 instructions:  176000000 cycles:  200086735 heartbeat IPC: 0.63610 cumulative IPC: 0.62813 (Simulation time: 0 hr 8 min 8 sec) 
Heartbeat CPU  0 instructions:  177000003 cycles:  201668011 heartbeat IPC: 0.63240 cumulative IPC: 0.62819 (Simulation time: 0 hr 8 min 11 sec) 
Heartbeat CPU  0 instructions:  178000001 cycles:  203248368 heartbeat IPC: 0.63277 cumulative IPC: 0.62824 (Simulation time: 0 hr 8 min 14 sec) 
Heartbeat CPU  0 instructions:  179000000 cycles:  204831808 heartbeat IPC: 0.63154 cumulative IPC: 0.62829 (Simulation time: 0 hr 8 min 17 sec) 
Heartbeat CPU  0 instructions:  180000000 cycles:  206417620 heartbeat IPC: 0.63059 cumulative IPC: 0.62831 (Simulation time: 0 hr 8 min 20 sec) 
Heartbeat CPU  0 instructions:  181000000 cycles:  207993291 heartbeat IPC: 0.63465 cumulative IPC: 0.62839 (Simulation time: 0 hr 8 min 23 sec) 
Heartbeat CPU  0 instructions:  182000001 cycles:  209571736 heartbeat IPC: 0.63354 cumulative IPC: 0.62845 (Simulation time: 0 hr 8 min 27 sec) 
Heartbeat CPU  0 instructions:  183000002 cycles:  211148524 heartbeat IPC: 0.63420 cumulative IPC: 0.62852 (Simulation time: 0 hr 8 min 30 sec) 
Heartbeat CPU  0 instructions:  184000000 cycles:  212728435 heartbeat IPC: 0.63295 cumulative IPC: 0.62857 (Simulation time: 0 hr 8 min 33 sec) 
Heartbeat CPU  0 instructions:  185000001 cycles:  214303828 heartbeat IPC: 0.63476 cumulative IPC: 0.62865 (Simulation time: 0 hr 8 min 36 sec) 
Heartbeat CPU  0 instructions:  186000000 cycles:  215884669 heartbeat IPC: 0.63257 cumulative IPC: 0.62869 (Simulation time: 0 hr 8 min 39 sec) 
Heartbeat CPU  0 instructions:  187000000 cycles:  217421543 heartbeat IPC: 0.65067 cumulative IPC: 0.62894 (Simulation time: 0 hr 8 min 42 sec) 
Heartbeat CPU  0 instructions:  188000000 cycles:  218853241 heartbeat IPC: 0.69847 cumulative IPC: 0.62965 (Simulation time: 0 hr 8 min 45 sec) 
Heartbeat CPU  0 instructions:  189000002 cycles:  220282787 heartbeat IPC: 0.69952 cumulative IPC: 0.63036 (Simulation time: 0 hr 8 min 48 sec) 
Heartbeat CPU  0 instructions:  190000003 cycles:  221729393 heartbeat IPC: 0.69127 cumulative IPC: 0.63097 (Simulation time: 0 hr 8 min 51 sec) 
Heartbeat CPU  0 instructions:  191000000 cycles:  223171107 heartbeat IPC: 0.69362 cumulative IPC: 0.63160 (Simulation time: 0 hr 8 min 54 sec) 
Heartbeat CPU  0 instructions:  192000000 cycles:  224603545 heartbeat IPC: 0.69811 cumulative IPC: 0.63226 (Simulation time: 0 hr 8 min 57 sec) 
Heartbeat CPU  0 instructions:  193000001 cycles:  226043366 heartbeat IPC: 0.69453 cumulative IPC: 0.63287 (Simulation time: 0 hr 9 min 0 sec) 
Heartbeat CPU  0 instructions:  194000000 cycles:  227484412 heartbeat IPC: 0.69394 cumulative IPC: 0.63346 (Simulation time: 0 hr 9 min 3 sec) 
Heartbeat CPU  0 instructions:  195000000 cycles:  228924480 heartbeat IPC: 0.69441 cumulative IPC: 0.63404 (Simulation time: 0 hr 9 min 6 sec) 
Heartbeat CPU  0 instructions:  196000000 cycles:  230374569 heartbeat IPC: 0.68961 cumulative IPC: 0.63458 (Simulation time: 0 hr 9 min 9 sec) 
Heartbeat CPU  0 instructions:  197000000 cycles:  231790182 heartbeat IPC: 0.70641 cumulative IPC: 0.63524 (Simulation time: 0 hr 9 min 12 sec) 
Heartbeat CPU  0 instructions:  198000003 cycles:  233234174 heartbeat IPC: 0.69253 cumulative IPC: 0.63578 (Simulation time: 0 hr 9 min 15 sec) 
Heartbeat CPU  0 instructions:  199000001 cycles:  234687570 heartbeat IPC: 0.68804 cumulative IPC: 0.63627 (Simulation time: 0 hr 9 min 18 sec) 
Heartbeat CPU  0 instructions:  200000000 cycles:  236120735 heartbeat IPC: 0.69776 cumulative IPC: 0.63683 (Simulation time: 0 hr 9 min 22 sec) 
Heartbeat CPU  0 instructions:  201000003 cycles:  237567604 heartbeat IPC: 0.69115 cumulative IPC: 0.63733 (Simulation time: 0 hr 9 min 25 sec) 
Heartbeat CPU  0 instructions:  202000000 cycles:  239027756 heartbeat IPC: 0.68486 cumulative IPC: 0.63776 (Simulation time: 0 hr 9 min 28 sec) 
Heartbeat CPU  0 instructions:  203000001 cycles:  240473229 heartbeat IPC: 0.69182 cumulative IPC: 0.63824 (Simulation time: 0 hr 9 min 31 sec) 
Heartbeat CPU  0 instructions:  204000000 cycles:  241921389 heartbeat IPC: 0.69053 cumulative IPC: 0.63871 (Simulation time: 0 hr 9 min 34 sec) 
Heartbeat CPU  0 instructions:  205000000 cycles:  243379052 heartbeat IPC: 0.68603 cumulative IPC: 0.63913 (Simulation time: 0 hr 9 min 37 sec) 
Heartbeat CPU  0 instructions:  206000002 cycles:  244798283 heartbeat IPC: 0.70461 cumulative IPC: 0.63969 (Simulation time: 0 hr 9 min 40 sec) 
Heartbeat CPU  0 instructions:  207000000 cycles:  246249511 heartbeat IPC: 0.68907 cumulative IPC: 0.64012 (Simulation time: 0 hr 9 min 43 sec) 
Heartbeat CPU  0 instructions:  208000000 cycles:  247701676 heartbeat IPC: 0.68863 cumulative IPC: 0.64054 (Simulation time: 0 hr 9 min 46 sec) 
Heartbeat CPU  0 instructions:  209000003 cycles:  249130741 heartbeat IPC: 0.69976 cumulative IPC: 0.64103 (Simulation time: 0 hr 9 min 49 sec) 
Heartbeat CPU  0 instructions:  210000000 cycles:  250602517 heartbeat IPC: 0.67945 cumulative IPC: 0.64136 (Simulation time: 0 hr 9 min 52 sec) 
Heartbeat CPU  0 instructions:  211000003 cycles:  252039872 heartbeat IPC: 0.69572 cumulative IPC: 0.64181 (Simulation time: 0 hr 9 min 55 sec) 
Heartbeat CPU  0 instructions:  212000000 cycles:  253495278 heartbeat IPC: 0.68709 cumulative IPC: 0.64219 (Simulation time: 0 hr 9 min 58 sec) 
Heartbeat CPU  0 instructions:  213000003 cycles:  254955920 heartbeat IPC: 0.68463 cumulative IPC: 0.64255 (Simulation time: 0 hr 10 min 1 sec) 
Heartbeat CPU  0 instructions:  214000000 cycles:  256410713 heartbeat IPC: 0.68738 cumulative IPC: 0.64291 (Simulation time: 0 hr 10 min 4 sec) 
Heartbeat CPU  0 instructions:  215000002 cycles:  257837552 heartbeat IPC: 0.70085 cumulative IPC: 0.64338 (Simulation time: 0 hr 10 min 7 sec) 
Heartbeat CPU  0 instructions:  216000000 cycles:  259291917 heartbeat IPC: 0.68758 cumulative IPC: 0.64373 (Simulation time: 0 hr 10 min 11 sec) 
Heartbeat CPU  0 instructions:  217000001 cycles:  260724625 heartbeat IPC: 0.69798 cumulative IPC: 0.64416 (Simulation time: 0 hr 10 min 14 sec) 
Heartbeat CPU  0 instructions:  218000000 cycles:  262155858 heartbeat IPC: 0.69870 cumulative IPC: 0.64459 (Simulation time: 0 hr 10 min 17 sec) 
Heartbeat CPU  0 instructions:  219000000 cycles:  263605965 heartbeat IPC: 0.68960 cumulative IPC: 0.64494 (Simulation time: 0 hr 10 min 20 sec) 
Heartbeat CPU  0 instructions:  220000000 cycles:  265031677 heartbeat IPC: 0.70140 cumulative IPC: 0.64537 (Simulation time: 0 hr 10 min 23 sec) 
Heartbeat CPU  0 instructions:  221000000 cycles:  266485232 heartbeat IPC: 0.68797 cumulative IPC: 0.64570 (Simulation time: 0 hr 10 min 26 sec) 
Heartbeat CPU  0 instructions:  222000000 cycles:  267934682 heartbeat IPC: 0.68992 cumulative IPC: 0.64604 (Simulation time: 0 hr 10 min 29 sec) 
Heartbeat CPU  0 instructions:  223000003 cycles:  269362193 heartbeat IPC: 0.70052 cumulative IPC: 0.64645 (Simulation time: 0 hr 10 min 32 sec) 
Heartbeat CPU  0 instructions:  224000000 cycles:  270838724 heartbeat IPC: 0.67726 cumulative IPC: 0.64669 (Simulation time: 0 hr 10 min 35 sec) 
Heartbeat CPU  0 instructions:  225000001 cycles:  272282715 heartbeat IPC: 0.69253 cumulative IPC: 0.64703 (Simulation time: 0 hr 10 min 38 sec) 
Heartbeat CPU  0 instructions:  226000002 cycles:  273722648 heartbeat IPC: 0.69448 cumulative IPC: 0.64738 (Simulation time: 0 hr 10 min 41 sec) 
Heartbeat CPU  0 instructions:  227000003 cycles:  275166820 heartbeat IPC: 0.69244 cumulative IPC: 0.64771 (Simulation time: 0 hr 10 min 44 sec) 
Heartbeat CPU  0 instructions:  228000000 cycles:  276610035 heartbeat IPC: 0.69290 cumulative IPC: 0.64804 (Simulation time: 0 hr 10 min 47 sec) 
Heartbeat CPU  0 instructions:  229000000 cycles:  278037437 heartbeat IPC: 0.70057 cumulative IPC: 0.64842 (Simulation time: 0 hr 10 min 50 sec) 
Heartbeat CPU  0 instructions:  230000003 cycles:  279485720 heartbeat IPC: 0.69047 cumulative IPC: 0.64873 (Simulation time: 0 hr 10 min 53 sec) 
Heartbeat CPU  0 instructions:  231000000 cycles:  280910331 heartbeat IPC: 0.70194 cumulative IPC: 0.64910 (Simulation time: 0 hr 10 min 56 sec) 
Heartbeat CPU  0 instructions:  232000000 cycles:  282343922 heartbeat IPC: 0.69755 cumulative IPC: 0.64944 (Simulation time: 0 hr 10 min 59 sec) 
Heartbeat CPU  0 instructions:  233000003 cycles:  283798429 heartbeat IPC: 0.68752 cumulative IPC: 0.64971 (Simulation time: 0 hr 11 min 2 sec) 
Heartbeat CPU  0 instructions:  234000002 cycles:  285218745 heartbeat IPC: 0.70407 cumulative IPC: 0.65009 (Simulation time: 0 hr 11 min 5 sec) 
Heartbeat CPU  0 instructions:  235000001 cycles:  286667033 heartbeat IPC: 0.69047 cumulative IPC: 0.65037 (Simulation time: 0 hr 11 min 8 sec) 
Heartbeat CPU  0 instructions:  236000000 cycles:  288128732 heartbeat IPC: 0.68413 cumulative IPC: 0.65061 (Simulation time: 0 hr 11 min 12 sec) 
Heartbeat CPU  0 instructions:  237000002 cycles:  289555990 heartbeat IPC: 0.70065 cumulative IPC: 0.65095 (Simulation time: 0 hr 11 min 15 sec) 
Heartbeat CPU  0 instructions:  238000000 cycles:  291029371 heartbeat IPC: 0.67871 cumulative IPC: 0.65114 (Simulation time: 0 hr 11 min 18 sec) 
Heartbeat CPU  0 instructions:  239000000 cycles:  292505742 heartbeat IPC: 0.67734 cumulative IPC: 0.65132 (Simulation time: 0 hr 11 min 21 sec) 
Heartbeat CPU  0 instructions:  240000000 cycles:  293922280 heartbeat IPC: 0.70595 cumulative IPC: 0.65168 (Simulation time: 0 hr 11 min 24 sec) 
Heartbeat CPU  0 instructions:  241000002 cycles:  295374993 heartbeat IPC: 0.68837 cumulative IPC: 0.65193 (Simulation time: 0 hr 11 min 27 sec) 
Heartbeat CPU  0 instructions:  242000000 cycles:  296825311 heartbeat IPC: 0.68950 cumulative IPC: 0.65218 (Simulation time: 0 hr 11 min 30 sec) 
Heartbeat CPU  0 instructions:  243000003 cycles:  298242335 heartbeat IPC: 0.70571 cumulative IPC: 0.65252 (Simulation time: 0 hr 11 min 33 sec) 
Heartbeat CPU  0 instructions:  244000000 cycles:  299682761 heartbeat IPC: 0.69424 cumulative IPC: 0.65279 (Simulation time: 0 hr 11 min 36 sec) 
Heartbeat CPU  0 instructions:  245000002 cycles:  301106583 heartbeat IPC: 0.70234 cumulative IPC: 0.65311 (Simulation time: 0 hr 11 min 39 sec) 
Heartbeat CPU  0 instructions:  246000003 cycles:  302537884 heartbeat IPC: 0.69867 cumulative IPC: 0.65340 (Simulation time: 0 hr 11 min 42 sec) 
Heartbeat CPU  0 instructions:  247000002 cycles:  303988661 heartbeat IPC: 0.68929 cumulative IPC: 0.65364 (Simulation time: 0 hr 11 min 45 sec) 
Heartbeat CPU  0 instructions:  248000000 cycles:  305412118 heartbeat IPC: 0.70251 cumulative IPC: 0.65394 (Simulation time: 0 hr 11 min 48 sec) 
Heartbeat CPU  0 instructions:  249000002 cycles:  306876552 heartbeat IPC: 0.68286 cumulative IPC: 0.65413 (Simulation time: 0 hr 11 min 51 sec) 
Heartbeat CPU  0 instructions:  250000003 cycles:  308329884 heartbeat IPC: 0.68807 cumulative IPC: 0.65434 (Simulation time: 0 hr 11 min 54 sec) 
Heartbeat CPU  0 instructions:  251000001 cycles:  309768920 heartbeat IPC: 0.69491 cumulative IPC: 0.65460 (Simulation time: 0 hr 11 min 57 sec) 
Heartbeat CPU  0 instructions:  252000000 cycles:  311215657 heartbeat IPC: 0.69121 cumulative IPC: 0.65483 (Simulation time: 0 hr 12 min 0 sec) 
Heartbeat CPU  0 instructions:  253000000 cycles:  312692426 heartbeat IPC: 0.67715 cumulative IPC: 0.65497 (Simulation time: 0 hr 12 min 3 sec) 
Heartbeat CPU  0 instructions:  254000003 cycles:  314106647 heartbeat IPC: 0.70711 cumulative IPC: 0.65528 (Simulation time: 0 hr 12 min 6 sec) 
Heartbeat CPU  0 instructions:  255000000 cycles:  315543366 heartbeat IPC: 0.69603 cumulative IPC: 0.65553 (Simulation time: 0 hr 12 min 9 sec) 
Heartbeat CPU  0 instructions:  256000000 cycles:  316997861 heartbeat IPC: 0.68752 cumulative IPC: 0.65572 (Simulation time: 0 hr 12 min 12 sec) 
Heartbeat CPU  0 instructions:  257000003 cycles:  318425504 heartbeat IPC: 0.70046 cumulative IPC: 0.65599 (Simulation time: 0 hr 12 min 15 sec) 
Heartbeat CPU  0 instructions:  258000003 cycles:  319863450 heartbeat IPC: 0.69544 cumulative IPC: 0.65623 (Simulation time: 0 hr 12 min 18 sec) 
Heartbeat CPU  0 instructions:  259000002 cycles:  321291163 heartbeat IPC: 0.70042 cumulative IPC: 0.65649 (Simulation time: 0 hr 12 min 22 sec) 
Heartbeat CPU  0 instructions:  260000000 cycles:  322721180 heartbeat IPC: 0.69929 cumulative IPC: 0.65674 (Simulation time: 0 hr 12 min 25 sec) 
Heartbeat CPU  0 instructions:  261000000 cycles:  324173314 heartbeat IPC: 0.68864 cumulative IPC: 0.65693 (Simulation time: 0 hr 12 min 28 sec) 
Heartbeat CPU  0 instructions:  262000001 cycles:  325607999 heartbeat IPC: 0.69702 cumulative IPC: 0.65716 (Simulation time: 0 hr 12 min 31 sec) 
Heartbeat CPU  0 instructions:  263000002 cycles:  327068224 heartbeat IPC: 0.68483 cumulative IPC: 0.65732 (Simulation time: 0 hr 12 min 34 sec) 
Heartbeat CPU  0 instructions:  264000000 cycles:  328535084 heartbeat IPC: 0.68173 cumulative IPC: 0.65747 (Simulation time: 0 hr 12 min 37 sec) 
Heartbeat CPU  0 instructions:  265000003 cycles:  329984569 heartbeat IPC: 0.68990 cumulative IPC: 0.65765 (Simulation time: 0 hr 12 min 40 sec) 
Heartbeat CPU  0 instructions:  266000002 cycles:  331426899 heartbeat IPC: 0.69332 cumulative IPC: 0.65786 (Simulation time: 0 hr 12 min 43 sec) 
Heartbeat CPU  0 instructions:  267000003 cycles:  332912688 heartbeat IPC: 0.67304 cumulative IPC: 0.65795 (Simulation time: 0 hr 12 min 46 sec) 
Heartbeat CPU  0 instructions:  268000000 cycles:  334331549 heartbeat IPC: 0.70479 cumulative IPC: 0.65821 (Simulation time: 0 hr 12 min 49 sec) 
Heartbeat CPU  0 instructions:  269000002 cycles:  335764368 heartbeat IPC: 0.69793 cumulative IPC: 0.65843 (Simulation time: 0 hr 12 min 52 sec) 
Heartbeat CPU  0 instructions:  270000001 cycles:  337223505 heartbeat IPC: 0.68534 cumulative IPC: 0.65858 (Simulation time: 0 hr 12 min 55 sec) 
Heartbeat CPU  0 instructions:  271000000 cycles:  338635216 heartbeat IPC: 0.70836 cumulative IPC: 0.65885 (Simulation time: 0 hr 12 min 58 sec) 
Heartbeat CPU  0 instructions:  272000000 cycles:  340077571 heartbeat IPC: 0.69331 cumulative IPC: 0.65904 (Simulation time: 0 hr 13 min 1 sec) 
Heartbeat CPU  0 instructions:  273000001 cycles:  341530357 heartbeat IPC: 0.68833 cumulative IPC: 0.65920 (Simulation time: 0 hr 13 min 4 sec) 
Heartbeat CPU  0 instructions:  274000000 cycles:  342964971 heartbeat IPC: 0.69705 cumulative IPC: 0.65941 (Simulation time: 0 hr 13 min 7 sec) 
Heartbeat CPU  0 instructions:  275000002 cycles:  344417647 heartbeat IPC: 0.68839 cumulative IPC: 0.65957 (Simulation time: 0 hr 13 min 10 sec) 
Heartbeat CPU  0 instructions:  276000000 cycles:  345859428 heartbeat IPC: 0.69359 cumulative IPC: 0.65975 (Simulation time: 0 hr 13 min 13 sec) 
Heartbeat CPU  0 instructions:  277000001 cycles:  347309447 heartbeat IPC: 0.68965 cumulative IPC: 0.65991 (Simulation time: 0 hr 13 min 16 sec) 
Heartbeat CPU  0 instructions:  278000003 cycles:  348765623 heartbeat IPC: 0.68673 cumulative IPC: 0.66006 (Simulation time: 0 hr 13 min 19 sec) 
Heartbeat CPU  0 instructions:  279000002 cycles:  350194344 heartbeat IPC: 0.69993 cumulative IPC: 0.66027 (Simulation time: 0 hr 13 min 22 sec) 
Heartbeat CPU  0 instructions:  280000000 cycles:  351618157 heartbeat IPC: 0.70234 cumulative IPC: 0.66049 (Simulation time: 0 hr 13 min 25 sec) 
Heartbeat CPU  0 instructions:  281000001 cycles:  353085044 heartbeat IPC: 0.68172 cumulative IPC: 0.66060 (Simulation time: 0 hr 13 min 29 sec) 
Heartbeat CPU  0 instructions:  282000002 cycles:  354514174 heartbeat IPC: 0.69973 cumulative IPC: 0.66081 (Simulation time: 0 hr 13 min 32 sec) 
Heartbeat CPU  0 instructions:  283000001 cycles:  355951400 heartbeat IPC: 0.69578 cumulative IPC: 0.66099 (Simulation time: 0 hr 13 min 35 sec) 
Heartbeat CPU  0 instructions:  284000000 cycles:  357407812 heartbeat IPC: 0.68662 cumulative IPC: 0.66112 (Simulation time: 0 hr 13 min 38 sec) 
Heartbeat CPU  0 instructions:  285000001 cycles:  358831984 heartbeat IPC: 0.70216 cumulative IPC: 0.66133 (Simulation time: 0 hr 13 min 41 sec) 
Heartbeat CPU  0 instructions:  286000002 cycles:  360273537 heartbeat IPC: 0.69370 cumulative IPC: 0.66150 (Simulation time: 0 hr 13 min 44 sec) 
Heartbeat CPU  0 instructions:  287000000 cycles:  361716642 heartbeat IPC: 0.69295 cumulative IPC: 0.66166 (Simulation time: 0 hr 13 min 47 sec) 
Heartbeat CPU  0 instructions:  288000000 cycles:  363156406 heartbeat IPC: 0.69456 cumulative IPC: 0.66182 (Simulation time: 0 hr 13 min 50 sec) 
Heartbeat CPU  0 instructions:  289000003 cycles:  364588478 heartbeat IPC: 0.69829 cumulative IPC: 0.66201 (Simulation time: 0 hr 13 min 53 sec) 
Heartbeat CPU  0 instructions:  290000000 cycles:  366041557 heartbeat IPC: 0.68819 cumulative IPC: 0.66214 (Simulation time: 0 hr 13 min 56 sec) 
Heartbeat CPU  0 instructions:  291000000 cycles:  367466199 heartbeat IPC: 0.70193 cumulative IPC: 0.66234 (Simulation time: 0 hr 13 min 59 sec) 
Heartbeat CPU  0 instructions:  292000000 cycles:  368945787 heartbeat IPC: 0.67586 cumulative IPC: 0.66240 (Simulation time: 0 hr 14 min 2 sec) 
Heartbeat CPU  0 instructions:  293000003 cycles:  370396926 heartbeat IPC: 0.68912 cumulative IPC: 0.66254 (Simulation time: 0 hr 14 min 5 sec) 
Heartbeat CPU  0 instructions:  294000000 cycles:  371818650 heartbeat IPC: 0.70337 cumulative IPC: 0.66274 (Simulation time: 0 hr 14 min 8 sec) 
Heartbeat CPU  0 instructions:  295000001 cycles:  373285388 heartbeat IPC: 0.68179 cumulative IPC: 0.66283 (Simulation time: 0 hr 14 min 11 sec) 
Heartbeat CPU  0 instructions:  296000000 cycles:  374717733 heartbeat IPC: 0.69816 cumulative IPC: 0.66300 (Simulation time: 0 hr 14 min 14 sec) 
Heartbeat CPU  0 instructions:  297000003 cycles:  376149294 heartbeat IPC: 0.69854 cumulative IPC: 0.66317 (Simulation time: 0 hr 14 min 17 sec) 
Heartbeat CPU  0 instructions:  298000000 cycles:  377603264 heartbeat IPC: 0.68777 cumulative IPC: 0.66329 (Simulation time: 0 hr 14 min 20 sec) 
Heartbeat CPU  0 instructions:  299000001 cycles:  379046759 heartbeat IPC: 0.69276 cumulative IPC: 0.66344 (Simulation time: 0 hr 14 min 23 sec) 
Heartbeat CPU  0 instructions:  300000000 cycles:  380488586 heartbeat IPC: 0.69356 cumulative IPC: 0.66358 (Simulation time: 0 hr 14 min 26 sec) 
Heartbeat CPU  0 instructions:  301000002 cycles:  381951585 heartbeat IPC: 0.68353 cumulative IPC: 0.66368 (Simulation time: 0 hr 14 min 29 sec) 
Heartbeat CPU  0 instructions:  302000001 cycles:  383405211 heartbeat IPC: 0.68793 cumulative IPC: 0.66379 (Simulation time: 0 hr 14 min 32 sec) 
Heartbeat CPU  0 instructions:  303000002 cycles:  384844090 heartbeat IPC: 0.69499 cumulative IPC: 0.66394 (Simulation time: 0 hr 14 min 36 sec) 
Heartbeat CPU  0 instructions:  304000000 cycles:  386304262 heartbeat IPC: 0.68485 cumulative IPC: 0.66404 (Simulation time: 0 hr 14 min 39 sec) 
Heartbeat CPU  0 instructions:  305000001 cycles:  387717308 heartbeat IPC: 0.70769 cumulative IPC: 0.66424 (Simulation time: 0 hr 14 min 42 sec) 
Heartbeat CPU  0 instructions:  306000000 cycles:  389164606 heartbeat IPC: 0.69094 cumulative IPC: 0.66436 (Simulation time: 0 hr 14 min 45 sec) 
Heartbeat CPU  0 instructions:  307000000 cycles:  390570329 heartbeat IPC: 0.71138 cumulative IPC: 0.66457 (Simulation time: 0 hr 14 min 48 sec) 
Heartbeat CPU  0 instructions:  308000000 cycles:  391694454 heartbeat IPC: 0.88958 cumulative IPC: 0.66538 (Simulation time: 0 hr 14 min 50 sec) 
Heartbeat CPU  0 instructions:  309000002 cycles:  392819014 heartbeat IPC: 0.88924 cumulative IPC: 0.66619 (Simulation time: 0 hr 14 min 53 sec) 
Heartbeat CPU  0 instructions:  310000000 cycles:  393939652 heartbeat IPC: 0.89235 cumulative IPC: 0.66699 (Simulation time: 0 hr 14 min 56 sec) 
Heartbeat CPU  0 instructions:  311000002 cycles:  395309289 heartbeat IPC: 0.73012 cumulative IPC: 0.66726 (Simulation time: 0 hr 14 min 59 sec) 
Heartbeat CPU  0 instructions:  312000000 cycles:  396792666 heartbeat IPC: 0.67414 cumulative IPC: 0.66730 (Simulation time: 0 hr 15 min 2 sec) 
Heartbeat CPU  0 instructions:  313000003 cycles:  398196383 heartbeat IPC: 0.71240 cumulative IPC: 0.66749 (Simulation time: 0 hr 15 min 5 sec) 
Heartbeat CPU  0 instructions:  314000000 cycles:  399687581 heartbeat IPC: 0.67060 cumulative IPC: 0.66751 (Simulation time: 0 hr 15 min 8 sec) 
Heartbeat CPU  0 instructions:  315000003 cycles:  401118789 heartbeat IPC: 0.69871 cumulative IPC: 0.66765 (Simulation time: 0 hr 15 min 11 sec) 
Heartbeat CPU  0 instructions:  316000000 cycles:  402562923 heartbeat IPC: 0.69245 cumulative IPC: 0.66776 (Simulation time: 0 hr 15 min 14 sec) 
Heartbeat CPU  0 instructions:  317000001 cycles:  404018531 heartbeat IPC: 0.68700 cumulative IPC: 0.66784 (Simulation time: 0 hr 15 min 17 sec) 
Heartbeat CPU  0 instructions:  318000000 cycles:  405459146 heartbeat IPC: 0.69415 cumulative IPC: 0.66796 (Simulation time: 0 hr 15 min 20 sec) 
Heartbeat CPU  0 instructions:  319000000 cycles:  406917824 heartbeat IPC: 0.68555 cumulative IPC: 0.66804 (Simulation time: 0 hr 15 min 23 sec) 
Heartbeat CPU  0 instructions:  320000000 cycles:  408355964 heartbeat IPC: 0.69534 cumulative IPC: 0.66816 (Simulation time: 0 hr 15 min 26 sec) 
Heartbeat CPU  0 instructions:  321000000 cycles:  409795394 heartbeat IPC: 0.69472 cumulative IPC: 0.66827 (Simulation time: 0 hr 15 min 29 sec) 
Heartbeat CPU  0 instructions:  322000003 cycles:  411243197 heartbeat IPC: 0.69070 cumulative IPC: 0.66837 (Simulation time: 0 hr 15 min 32 sec) 
Heartbeat CPU  0 instructions:  323000003 cycles:  412656926 heartbeat IPC: 0.70735 cumulative IPC: 0.66854 (Simulation time: 0 hr 15 min 35 sec) 
Heartbeat CPU  0 instructions:  324000000 cycles:  414132074 heartbeat IPC: 0.67790 cumulative IPC: 0.66858 (Simulation time: 0 hr 15 min 38 sec) 
Heartbeat CPU  0 instructions:  325000003 cycles:  415554829 heartbeat IPC: 0.70286 cumulative IPC: 0.66872 (Simulation time: 0 hr 15 min 41 sec) 
Heartbeat CPU  0 instructions:  326000000 cycles:  417015320 heartbeat IPC: 0.68470 cumulative IPC: 0.66879 (Simulation time: 0 hr 15 min 44 sec) 
Heartbeat CPU  0 instructions:  327000001 cycles:  418489141 heartbeat IPC: 0.67851 cumulative IPC: 0.66883 (Simulation time: 0 hr 15 min 48 sec) 
Heartbeat CPU  0 instructions:  328000000 cycles:  419909349 heartbeat IPC: 0.70412 cumulative IPC: 0.66898 (Simulation time: 0 hr 15 min 51 sec) 
Heartbeat CPU  0 instructions:  329000002 cycles:  421368488 heartbeat IPC: 0.68534 cumulative IPC: 0.66905 (Simulation time: 0 hr 15 min 54 sec) 
Heartbeat CPU  0 instructions:  330000003 cycles:  422798872 heartbeat IPC: 0.69911 cumulative IPC: 0.66918 (Simulation time: 0 hr 15 min 57 sec) 
Heartbeat CPU  0 instructions:  331000003 cycles:  424236364 heartbeat IPC: 0.69566 cumulative IPC: 0.66929 (Simulation time: 0 hr 16 min 0 sec) 
Heartbeat CPU  0 instructions:  332000000 cycles:  425679885 heartbeat IPC: 0.69275 cumulative IPC: 0.66938 (Simulation time: 0 hr 16 min 3 sec) 
Heartbeat CPU  0 instructions:  333000003 cycles:  427111382 heartbeat IPC: 0.69857 cumulative IPC: 0.66950 (Simulation time: 0 hr 16 min 6 sec) 
Heartbeat CPU  0 instructions:  334000000 cycles:  428565304 heartbeat IPC: 0.68779 cumulative IPC: 0.66958 (Simulation time: 0 hr 16 min 9 sec) 
Heartbeat CPU  0 instructions:  335000002 cycles:  429999705 heartbeat IPC: 0.69716 cumulative IPC: 0.66969 (Simulation time: 0 hr 16 min 12 sec) 
Heartbeat CPU  0 instructions:  336000000 cycles:  431460173 heartbeat IPC: 0.68471 cumulative IPC: 0.66976 (Simulation time: 0 hr 16 min 15 sec) 
Heartbeat CPU  0 instructions:  337000000 cycles:  432898928 heartbeat IPC: 0.69505 cumulative IPC: 0.66986 (Simulation time: 0 hr 16 min 18 sec) 
Heartbeat CPU  0 instructions:  338000002 cycles:  434327624 heartbeat IPC: 0.69994 cumulative IPC: 0.66998 (Simulation time: 0 hr 16 min 21 sec) 
Heartbeat CPU  0 instructions:  339000001 cycles:  435802980 heartbeat IPC: 0.67780 cumulative IPC: 0.67001 (Simulation time: 0 hr 16 min 24 sec) 
Heartbeat CPU  0 instructions:  340000000 cycles:  437222921 heartbeat IPC: 0.70425 cumulative IPC: 0.67015 (Simulation time: 0 hr 16 min 27 sec) 
Heartbeat CPU  0 instructions:  341000002 cycles:  438666077 heartbeat IPC: 0.69293 cumulative IPC: 0.67024 (Simulation time: 0 hr 16 min 30 sec) 
Heartbeat CPU  0 instructions:  342000003 cycles:  440111436 heartbeat IPC: 0.69187 cumulative IPC: 0.67033 (Simulation time: 0 hr 16 min 33 sec) 
Heartbeat CPU  0 instructions:  343000000 cycles:  441543787 heartbeat IPC: 0.69815 cumulative IPC: 0.67044 (Simulation time: 0 hr 16 min 36 sec) 
Heartbeat CPU  0 instructions:  344000000 cycles:  442996546 heartbeat IPC: 0.68835 cumulative IPC: 0.67051 (Simulation time: 0 hr 16 min 39 sec) 
Heartbeat CPU  0 instructions:  345000003 cycles:  444446852 heartbeat IPC: 0.68951 cumulative IPC: 0.67058 (Simulation time: 0 hr 16 min 42 sec) 
Heartbeat CPU  0 instructions:  346000000 cycles:  445885045 heartbeat IPC: 0.69531 cumulative IPC: 0.67068 (Simulation time: 0 hr 16 min 45 sec) 
Heartbeat CPU  0 instructions:  347000003 cycles:  447326730 heartbeat IPC: 0.69363 cumulative IPC: 0.67077 (Simulation time: 0 hr 16 min 48 sec) 
Heartbeat CPU  0 instructions:  348000000 cycles:  448751433 heartbeat IPC: 0.70190 cumulative IPC: 0.67089 (Simulation time: 0 hr 16 min 51 sec) 
Heartbeat CPU  0 instructions:  349000000 cycles:  450208301 heartbeat IPC: 0.68640 cumulative IPC: 0.67095 (Simulation time: 0 hr 16 min 55 sec) 
Heartbeat CPU  0 instructions:  350000003 cycles:  451631087 heartbeat IPC: 0.70285 cumulative IPC: 0.67107 (Simulation time: 0 hr 16 min 58 sec) 
Heartbeat CPU  0 instructions:  351000001 cycles:  453093740 heartbeat IPC: 0.68369 cumulative IPC: 0.67112 (Simulation time: 0 hr 17 min 1 sec) 
Heartbeat CPU  0 instructions:  352000000 cycles:  454544032 heartbeat IPC: 0.68952 cumulative IPC: 0.67119 (Simulation time: 0 hr 17 min 4 sec) 
Heartbeat CPU  0 instructions:  353000003 cycles:  455981307 heartbeat IPC: 0.69576 cumulative IPC: 0.67129 (Simulation time: 0 hr 17 min 7 sec) 
Heartbeat CPU  0 instructions:  354000000 cycles:  457442869 heartbeat IPC: 0.68420 cumulative IPC: 0.67134 (Simulation time: 0 hr 17 min 10 sec) 
Heartbeat CPU  0 instructions:  355000000 cycles:  458892941 heartbeat IPC: 0.68962 cumulative IPC: 0.67141 (Simulation time: 0 hr 17 min 13 sec) 
Heartbeat CPU  0 instructions:  356000000 cycles:  460329878 heartbeat IPC: 0.69592 cumulative IPC: 0.67150 (Simulation time: 0 hr 17 min 16 sec) 
Heartbeat CPU  0 instructions:  357000002 cycles:  461792487 heartbeat IPC: 0.68371 cumulative IPC: 0.67154 (Simulation time: 0 hr 17 min 19 sec) 
Heartbeat CPU  0 instructions:  358000003 cycles:  463228386 heartbeat IPC: 0.69643 cumulative IPC: 0.67164 (Simulation time: 0 hr 17 min 22 sec) 
Heartbeat CPU  0 instructions:  359000000 cycles:  464697339 heartbeat IPC: 0.68075 cumulative IPC: 0.67167 (Simulation time: 0 hr 17 min 25 sec) 
Heartbeat CPU  0 instructions:  360000000 cycles:  466149640 heartbeat IPC: 0.68856 cumulative IPC: 0.67174 (Simulation time: 0 hr 17 min 28 sec) 
Heartbeat CPU  0 instructions:  361000002 cycles:  467588122 heartbeat IPC: 0.69518 cumulative IPC: 0.67182 (Simulation time: 0 hr 17 min 31 sec) 
Heartbeat CPU  0 instructions:  362000003 cycles:  469028374 heartbeat IPC: 0.69432 cumulative IPC: 0.67191 (Simulation time: 0 hr 17 min 34 sec) 
Heartbeat CPU  0 instructions:  363000003 cycles:  470467004 heartbeat IPC: 0.69511 cumulative IPC: 0.67199 (Simulation time: 0 hr 17 min 37 sec) 
Heartbeat CPU  0 instructions:  364000000 cycles:  471925894 heartbeat IPC: 0.68545 cumulative IPC: 0.67204 (Simulation time: 0 hr 17 min 40 sec) 
Heartbeat CPU  0 instructions:  365000003 cycles:  473348966 heartbeat IPC: 0.70271 cumulative IPC: 0.67215 (Simulation time: 0 hr 17 min 43 sec) 
Heartbeat CPU  0 instructions:  366000000 cycles:  474803984 heartbeat IPC: 0.68727 cumulative IPC: 0.67221 (Simulation time: 0 hr 17 min 46 sec) 
Heartbeat CPU  0 instructions:  367000001 cycles:  476255070 heartbeat IPC: 0.68914 cumulative IPC: 0.67227 (Simulation time: 0 hr 17 min 49 sec) 
Heartbeat CPU  0 instructions:  368000000 cycles:  477679838 heartbeat IPC: 0.70187 cumulative IPC: 0.67238 (Simulation time: 0 hr 17 min 52 sec) 
Heartbeat CPU  0 instructions:  369000003 cycles:  479134128 heartbeat IPC: 0.68762 cumulative IPC: 0.67243 (Simulation time: 0 hr 17 min 56 sec) 
Heartbeat CPU  0 instructions:  370000000 cycles:  480577477 heartbeat IPC: 0.69283 cumulative IPC: 0.67250 (Simulation time: 0 hr 17 min 59 sec) 
Heartbeat CPU  0 instructions:  371000000 cycles:  482027178 heartbeat IPC: 0.68980 cumulative IPC: 0.67257 (Simulation time: 0 hr 18 min 2 sec) 
Heartbeat CPU  0 instructions:  372000000 cycles:  483498608 heartbeat IPC: 0.67961 cumulative IPC: 0.67259 (Simulation time: 0 hr 18 min 5 sec) 
Heartbeat CPU  0 instructions:  373000000 cycles:  484926284 heartbeat IPC: 0.70044 cumulative IPC: 0.67269 (Simulation time: 0 hr 18 min 8 sec) 
Heartbeat CPU  0 instructions:  374000003 cycles:  486400625 heartbeat IPC: 0.67827 cumulative IPC: 0.67271 (Simulation time: 0 hr 18 min 11 sec) 
Heartbeat CPU  0 instructions:  375000002 cycles:  487809089 heartbeat IPC: 0.70999 cumulative IPC: 0.67284 (Simulation time: 0 hr 18 min 14 sec) 
Heartbeat CPU  0 instructions:  376000000 cycles:  489275597 heartbeat IPC: 0.68189 cumulative IPC: 0.67287 (Simulation time: 0 hr 18 min 17 sec) 
Heartbeat CPU  0 instructions:  377000003 cycles:  490692102 heartbeat IPC: 0.70597 cumulative IPC: 0.67298 (Simulation time: 0 hr 18 min 20 sec) 
Heartbeat CPU  0 instructions:  378000000 cycles:  492134023 heartbeat IPC: 0.69352 cumulative IPC: 0.67306 (Simulation time: 0 hr 18 min 23 sec) 
Heartbeat CPU  0 instructions:  379000001 cycles:  493585794 heartbeat IPC: 0.68881 cumulative IPC: 0.67311 (Simulation time: 0 hr 18 min 26 sec) 
Heartbeat CPU  0 instructions:  380000000 cycles:  494999178 heartbeat IPC: 0.70752 cumulative IPC: 0.67323 (Simulation time: 0 hr 18 min 29 sec) 
Heartbeat CPU  0 instructions:  381000002 cycles:  496446223 heartbeat IPC: 0.69106 cumulative IPC: 0.67329 (Simulation time: 0 hr 18 min 32 sec) 
Heartbeat CPU  0 instructions:  382000003 cycles:  497903446 heartbeat IPC: 0.68624 cumulative IPC: 0.67334 (Simulation time: 0 hr 18 min 35 sec) 
Heartbeat CPU  0 instructions:  383000000 cycles:  499338459 heartbeat IPC: 0.69686 cumulative IPC: 0.67342 (Simulation time: 0 hr 18 min 38 sec) 
Heartbeat CPU  0 instructions:  384000000 cycles:  500806559 heartbeat IPC: 0.68115 cumulative IPC: 0.67344 (Simulation time: 0 hr 18 min 41 sec) 
Heartbeat CPU  0 instructions:  385000003 cycles:  502219776 heartbeat IPC: 0.70761 cumulative IPC: 0.67356 (Simulation time: 0 hr 18 min 44 sec) 
Heartbeat CPU  0 instructions:  386000000 cycles:  503688706 heartbeat IPC: 0.68077 cumulative IPC: 0.67358 (Simulation time: 0 hr 18 min 47 sec) 
Heartbeat CPU  0 instructions:  387000002 cycles:  505112612 heartbeat IPC: 0.70229 cumulative IPC: 0.67368 (Simulation time: 0 hr 18 min 50 sec) 
Heartbeat CPU  0 instructions:  388000000 cycles:  506585228 heartbeat IPC: 0.67906 cumulative IPC: 0.67370 (Simulation time: 0 hr 18 min 54 sec) 
Heartbeat CPU  0 instructions:  389000000 cycles:  508039633 heartbeat IPC: 0.68757 cumulative IPC: 0.67374 (Simulation time: 0 hr 18 min 57 sec) 
Heartbeat CPU  0 instructions:  390000000 cycles:  509459852 heartbeat IPC: 0.70412 cumulative IPC: 0.67384 (Simulation time: 0 hr 19 min 0 sec) 
Heartbeat CPU  0 instructions:  391000003 cycles:  510910889 heartbeat IPC: 0.68916 cumulative IPC: 0.67389 (Simulation time: 0 hr 19 min 3 sec) 
Heartbeat CPU  0 instructions:  392000000 cycles:  512330098 heartbeat IPC: 0.70462 cumulative IPC: 0.67400 (Simulation time: 0 hr 19 min 6 sec) 
Heartbeat CPU  0 instructions:  393000000 cycles:  513763592 heartbeat IPC: 0.69760 cumulative IPC: 0.67407 (Simulation time: 0 hr 19 min 9 sec) 
Heartbeat CPU  0 instructions:  394000000 cycles:  515233481 heartbeat IPC: 0.68032 cumulative IPC: 0.67409 (Simulation time: 0 hr 19 min 12 sec) 
Heartbeat CPU  0 instructions:  395000000 cycles:  516643052 heartbeat IPC: 0.70944 cumulative IPC: 0.67421 (Simulation time: 0 hr 19 min 15 sec) 
Heartbeat CPU  0 instructions:  396000000 cycles:  518113481 heartbeat IPC: 0.68007 cumulative IPC: 0.67423 (Simulation time: 0 hr 19 min 18 sec) 
Heartbeat CPU  0 instructions:  397000000 cycles:  519557215 heartbeat IPC: 0.69265 cumulative IPC: 0.67429 (Simulation time: 0 hr 19 min 21 sec) 
Heartbeat CPU  0 instructions:  398000001 cycles:  521005051 heartbeat IPC: 0.69069 cumulative IPC: 0.67434 (Simulation time: 0 hr 19 min 24 sec) 
Heartbeat CPU  0 instructions:  399000002 cycles:  522471023 heartbeat IPC: 0.68214 cumulative IPC: 0.67437 (Simulation time: 0 hr 19 min 27 sec) 
Heartbeat CPU  0 instructions:  400000000 cycles:  523901031 heartbeat IPC: 0.69930 cumulative IPC: 0.67445 (Simulation time: 0 hr 19 min 30 sec) 
Heartbeat CPU  0 instructions:  401000002 cycles:  525373835 heartbeat IPC: 0.67898 cumulative IPC: 0.67446 (Simulation time: 0 hr 19 min 33 sec) 
Heartbeat CPU  0 instructions:  402000003 cycles:  526798157 heartbeat IPC: 0.70209 cumulative IPC: 0.67455 (Simulation time: 0 hr 19 min 36 sec) 
Heartbeat CPU  0 instructions:  403000000 cycles:  528264150 heartbeat IPC: 0.68213 cumulative IPC: 0.67458 (Simulation time: 0 hr 19 min 40 sec) 
Heartbeat CPU  0 instructions:  404000000 cycles:  529718076 heartbeat IPC: 0.68779 cumulative IPC: 0.67462 (Simulation time: 0 hr 19 min 43 sec) 
Heartbeat CPU  0 instructions:  405000003 cycles:  531149990 heartbeat IPC: 0.69837 cumulative IPC: 0.67469 (Simulation time: 0 hr 19 min 46 sec) 
Heartbeat CPU  0 instructions:  406000000 cycles:  532601164 heartbeat IPC: 0.68910 cumulative IPC: 0.67474 (Simulation time: 0 hr 19 min 49 sec) 
Heartbeat CPU  0 instructions:  407000001 cycles:  534031480 heartbeat IPC: 0.69915 cumulative IPC: 0.67482 (Simulation time: 0 hr 19 min 52 sec) 
Heartbeat CPU  0 instructions:  408000000 cycles:  535470508 heartbeat IPC: 0.69491 cumulative IPC: 0.67488 (Simulation time: 0 hr 19 min 55 sec) 
Heartbeat CPU  0 instructions:  409000002 cycles:  536946665 heartbeat IPC: 0.67744 cumulative IPC: 0.67489 (Simulation time: 0 hr 19 min 58 sec) 
Heartbeat CPU  0 instructions:  410000000 cycles:  538369016 heartbeat IPC: 0.70306 cumulative IPC: 0.67498 (Simulation time: 0 hr 20 min 1 sec) 
Heartbeat CPU  0 instructions:  411000001 cycles:  539834159 heartbeat IPC: 0.68253 cumulative IPC: 0.67500 (Simulation time: 0 hr 20 min 4 sec) 
Heartbeat CPU  0 instructions:  412000000 cycles:  541262618 heartbeat IPC: 0.70005 cumulative IPC: 0.67508 (Simulation time: 0 hr 20 min 7 sec) 
Heartbeat CPU  0 instructions:  413000002 cycles:  542738683 heartbeat IPC: 0.67748 cumulative IPC: 0.67508 (Simulation time: 0 hr 20 min 10 sec) 
Heartbeat CPU  0 instructions:  414000001 cycles:  544186477 heartbeat IPC: 0.69071 cumulative IPC: 0.67513 (Simulation time: 0 hr 20 min 14 sec) 
Heartbeat CPU  0 instructions:  415000002 cycles:  545639944 heartbeat IPC: 0.68801 cumulative IPC: 0.67517 (Simulation time: 0 hr 20 min 17 sec) 
Heartbeat CPU  0 instructions:  416000000 cycles:  547097287 heartbeat IPC: 0.68618 cumulative IPC: 0.67521 (Simulation time: 0 hr 20 min 20 sec) 
Heartbeat CPU  0 instructions:  417000003 cycles:  548518823 heartbeat IPC: 0.70347 cumulative IPC: 0.67529 (Simulation time: 0 hr 20 min 23 sec) 
Heartbeat CPU  0 instructions:  418000000 cycles:  549967382 heartbeat IPC: 0.69034 cumulative IPC: 0.67534 (Simulation time: 0 hr 20 min 26 sec) 
Heartbeat CPU  0 instructions:  419000001 cycles:  551413978 heartbeat IPC: 0.69128 cumulative IPC: 0.67539 (Simulation time: 0 hr 20 min 29 sec) 
Heartbeat CPU  0 instructions:  420000000 cycles:  552833074 heartbeat IPC: 0.70467 cumulative IPC: 0.67548 (Simulation time: 0 hr 20 min 32 sec) 
Heartbeat CPU  0 instructions:  421000000 cycles:  554294487 heartbeat IPC: 0.68427 cumulative IPC: 0.67550 (Simulation time: 0 hr 20 min 35 sec) 
Heartbeat CPU  0 instructions:  422000001 cycles:  555714150 heartbeat IPC: 0.70439 cumulative IPC: 0.67559 (Simulation time: 0 hr 20 min 38 sec) 
Heartbeat CPU  0 instructions:  423000001 cycles:  557153288 heartbeat IPC: 0.69486 cumulative IPC: 0.67565 (Simulation time: 0 hr 20 min 41 sec) 
Heartbeat CPU  0 instructions:  424000000 cycles:  558592815 heartbeat IPC: 0.69467 cumulative IPC: 0.67570 (Simulation time: 0 hr 20 min 44 sec) 
Heartbeat CPU  0 instructions:  425000001 cycles:  560043193 heartbeat IPC: 0.68948 cumulative IPC: 0.67575 (Simulation time: 0 hr 20 min 47 sec) 
Heartbeat CPU  0 instructions:  426000002 cycles:  561498463 heartbeat IPC: 0.68716 cumulative IPC: 0.67578 (Simulation time: 0 hr 20 min 50 sec) 
Heartbeat CPU  0 instructions:  427000000 cycles:  562934260 heartbeat IPC: 0.69648 cumulative IPC: 0.67584 (Simulation time: 0 hr 20 min 53 sec) 
Heartbeat CPU  0 instructions:  428000000 cycles:  564388928 heartbeat IPC: 0.68744 cumulative IPC: 0.67588 (Simulation time: 0 hr 20 min 56 sec) 
Heartbeat CPU  0 instructions:  429000000 cycles:  565824994 heartbeat IPC: 0.69635 cumulative IPC: 0.67594 (Simulation time: 0 hr 20 min 59 sec) 
Heartbeat CPU  0 instructions:  430000000 cycles:  567263132 heartbeat IPC: 0.69534 cumulative IPC: 0.67599 (Simulation time: 0 hr 21 min 2 sec) 
Heartbeat CPU  0 instructions:  431000002 cycles:  568713874 heartbeat IPC: 0.68930 cumulative IPC: 0.67603 (Simulation time: 0 hr 21 min 5 sec) 
Heartbeat CPU  0 instructions:  432000000 cycles:  570149331 heartbeat IPC: 0.69664 cumulative IPC: 0.67609 (Simulation time: 0 hr 21 min 9 sec) 
Heartbeat CPU  0 instructions:  433000001 cycles:  571594822 heartbeat IPC: 0.69181 cumulative IPC: 0.67614 (Simulation time: 0 hr 21 min 12 sec) 
Heartbeat CPU  0 instructions:  434000000 cycles:  573047453 heartbeat IPC: 0.68841 cumulative IPC: 0.67618 (Simulation time: 0 hr 21 min 15 sec) 
Heartbeat CPU  0 instructions:  435000003 cycles:  574477694 heartbeat IPC: 0.69918 cumulative IPC: 0.67624 (Simulation time: 0 hr 21 min 18 sec) 
Heartbeat CPU  0 instructions:  436000000 cycles:  575935613 heartbeat IPC: 0.68591 cumulative IPC: 0.67627 (Simulation time: 0 hr 21 min 21 sec) 
Heartbeat CPU  0 instructions:  437000002 cycles:  577370960 heartbeat IPC: 0.69670 cumulative IPC: 0.67633 (Simulation time: 0 hr 21 min 24 sec) 
Heartbeat CPU  0 instructions:  438000001 cycles:  578815058 heartbeat IPC: 0.69247 cumulative IPC: 0.67638 (Simulation time: 0 hr 21 min 27 sec) 
Heartbeat CPU  0 instructions:  439000000 cycles:  580250786 heartbeat IPC: 0.69651 cumulative IPC: 0.67643 (Simulation time: 0 hr 21 min 30 sec) 
Heartbeat CPU  0 instructions:  440000000 cycles:  581697210 heartbeat IPC: 0.69136 cumulative IPC: 0.67648 (Simulation time: 0 hr 21 min 33 sec) 
Heartbeat CPU  0 instructions:  441000001 cycles:  583158523 heartbeat IPC: 0.68432 cumulative IPC: 0.67650 (Simulation time: 0 hr 21 min 36 sec) 
Heartbeat CPU  0 instructions:  442000000 cycles:  584577082 heartbeat IPC: 0.70494 cumulative IPC: 0.67658 (Simulation time: 0 hr 21 min 39 sec) 
Heartbeat CPU  0 instructions:  443000000 cycles:  586011094 heartbeat IPC: 0.69734 cumulative IPC: 0.67664 (Simulation time: 0 hr 21 min 42 sec) 
Heartbeat CPU  0 instructions:  444000000 cycles:  587482942 heartbeat IPC: 0.67942 cumulative IPC: 0.67665 (Simulation time: 0 hr 21 min 45 sec) 
Heartbeat CPU  0 instructions:  445000002 cycles:  588929169 heartbeat IPC: 0.69146 cumulative IPC: 0.67669 (Simulation time: 0 hr 21 min 48 sec) 
Heartbeat CPU  0 instructions:  446000001 cycles:  590374506 heartbeat IPC: 0.69188 cumulative IPC: 0.67673 (Simulation time: 0 hr 21 min 51 sec) 
Heartbeat CPU  0 instructions:  447000003 cycles:  591801674 heartbeat IPC: 0.70069 cumulative IPC: 0.67680 (Simulation time: 0 hr 21 min 54 sec) 
Heartbeat CPU  0 instructions:  448000000 cycles:  593281521 heartbeat IPC: 0.67574 cumulative IPC: 0.67679 (Simulation time: 0 hr 21 min 57 sec) 
Heartbeat CPU  0 instructions:  449000000 cycles:  594724907 heartbeat IPC: 0.69282 cumulative IPC: 0.67684 (Simulation time: 0 hr 22 min 1 sec) 
Heartbeat CPU  0 instructions:  450000003 cycles:  596145430 heartbeat IPC: 0.70397 cumulative IPC: 0.67691 (Simulation time: 0 hr 22 min 4 sec) 
Heartbeat CPU  0 instructions:  451000000 cycles:  597603066 heartbeat IPC: 0.68604 cumulative IPC: 0.67694 (Simulation time: 0 hr 22 min 7 sec) 
Heartbeat CPU  0 instructions:  452000000 cycles:  599062598 heartbeat IPC: 0.68515 cumulative IPC: 0.67696 (Simulation time: 0 hr 22 min 10 sec) 
Heartbeat CPU  0 instructions:  453000001 cycles:  600500017 heartbeat IPC: 0.69569 cumulative IPC: 0.67701 (Simulation time: 0 hr 22 min 13 sec) 
Heartbeat CPU  0 instructions:  454000000 cycles:  601932005 heartbeat IPC: 0.69833 cumulative IPC: 0.67707 (Simulation time: 0 hr 22 min 16 sec) 
Heartbeat CPU  0 instructions:  455000000 cycles:  603361367 heartbeat IPC: 0.69961 cumulative IPC: 0.67713 (Simulation time: 0 hr 22 min 19 sec) 
Heartbeat CPU  0 instructions:  456000000 cycles:  604812893 heartbeat IPC: 0.68893 cumulative IPC: 0.67717 (Simulation time: 0 hr 22 min 22 sec) 
Heartbeat CPU  0 instructions:  457000002 cycles:  606232720 heartbeat IPC: 0.70431 cumulative IPC: 0.67724 (Simulation time: 0 hr 22 min 25 sec) 
Heartbeat CPU  0 instructions:  458000003 cycles:  607686976 heartbeat IPC: 0.68764 cumulative IPC: 0.67727 (Simulation time: 0 hr 22 min 28 sec) 
Heartbeat CPU  0 instructions:  459000001 cycles:  609112451 heartbeat IPC: 0.70152 cumulative IPC: 0.67733 (Simulation time: 0 hr 22 min 31 sec) 
Heartbeat CPU  0 instructions:  460000000 cycles:  610547533 heartbeat IPC: 0.69682 cumulative IPC: 0.67739 (Simulation time: 0 hr 22 min 34 sec) 
Heartbeat CPU  0 instructions:  461000002 cycles:  611994485 heartbeat IPC: 0.69111 cumulative IPC: 0.67742 (Simulation time: 0 hr 22 min 37 sec) 
Heartbeat CPU  0 instructions:  462000003 cycles:  613417145 heartbeat IPC: 0.70291 cumulative IPC: 0.67749 (Simulation time: 0 hr 22 min 40 sec) 
Heartbeat CPU  0 instructions:  463000002 cycles:  614878653 heartbeat IPC: 0.68422 cumulative IPC: 0.67751 (Simulation time: 0 hr 22 min 43 sec) 
Heartbeat CPU  0 instructions:  464000000 cycles:  616301666 heartbeat IPC: 0.70273 cumulative IPC: 0.67758 (Simulation time: 0 hr 22 min 46 sec) 
Heartbeat CPU  0 instructions:  465000001 cycles:  617731138 heartbeat IPC: 0.69956 cumulative IPC: 0.67763 (Simulation time: 0 hr 22 min 50 sec) 
Heartbeat CPU  0 instructions:  466000000 cycles:  619220755 heartbeat IPC: 0.67131 cumulative IPC: 0.67762 (Simulation time: 0 hr 22 min 53 sec) 
Heartbeat CPU  0 instructions:  467000001 cycles:  620654919 heartbeat IPC: 0.69727 cumulative IPC: 0.67767 (Simulation time: 0 hr 22 min 56 sec) 
Heartbeat CPU  0 instructions:  468000000 cycles:  622098289 heartbeat IPC: 0.69282 cumulative IPC: 0.67771 (Simulation time: 0 hr 22 min 59 sec) 
Heartbeat CPU  0 instructions:  469000002 cycles:  623521784 heartbeat IPC: 0.70250 cumulative IPC: 0.67777 (Simulation time: 0 hr 23 min 2 sec) 
Heartbeat CPU  0 instructions:  470000003 cycles:  624984402 heartbeat IPC: 0.68371 cumulative IPC: 0.67779 (Simulation time: 0 hr 23 min 5 sec) 
Heartbeat CPU  0 instructions:  471000002 cycles:  626455321 heartbeat IPC: 0.67985 cumulative IPC: 0.67780 (Simulation time: 0 hr 23 min 8 sec) 
Heartbeat CPU  0 instructions:  472000000 cycles:  627864028 heartbeat IPC: 0.70987 cumulative IPC: 0.67788 (Simulation time: 0 hr 23 min 11 sec) 
Heartbeat CPU  0 instructions:  473000001 cycles:  629315466 heartbeat IPC: 0.68897 cumulative IPC: 0.67791 (Simulation time: 0 hr 23 min 14 sec) 
Heartbeat CPU  0 instructions:  474000000 cycles:  630779243 heartbeat IPC: 0.68316 cumulative IPC: 0.67792 (Simulation time: 0 hr 23 min 17 sec) 
Heartbeat CPU  0 instructions:  475000001 cycles:  632215835 heartbeat IPC: 0.69609 cumulative IPC: 0.67797 (Simulation time: 0 hr 23 min 20 sec) 
Heartbeat CPU  0 instructions:  476000000 cycles:  633660559 heartbeat IPC: 0.69217 cumulative IPC: 0.67801 (Simulation time: 0 hr 23 min 23 sec) 
Heartbeat CPU  0 instructions:  477000003 cycles:  635072484 heartbeat IPC: 0.70826 cumulative IPC: 0.67808 (Simulation time: 0 hr 23 min 26 sec) 
Heartbeat CPU  0 instructions:  478000002 cycles:  636568505 heartbeat IPC: 0.66844 cumulative IPC: 0.67806 (Simulation time: 0 hr 23 min 29 sec) 
Heartbeat CPU  0 instructions:  479000003 cycles:  637991022 heartbeat IPC: 0.70298 cumulative IPC: 0.67812 (Simulation time: 0 hr 23 min 33 sec) 
Heartbeat CPU  0 instructions:  480000000 cycles:  639422439 heartbeat IPC: 0.69861 cumulative IPC: 0.67817 (Simulation time: 0 hr 23 min 36 sec) 
Heartbeat CPU  0 instructions:  481000000 cycles:  640867388 heartbeat IPC: 0.69207 cumulative IPC: 0.67821 (Simulation time: 0 hr 23 min 39 sec) 
Heartbeat CPU  0 instructions:  482000003 cycles:  642278318 heartbeat IPC: 0.70875 cumulative IPC: 0.67828 (Simulation time: 0 hr 23 min 42 sec) 
Heartbeat CPU  0 instructions:  483000000 cycles:  643729131 heartbeat IPC: 0.68927 cumulative IPC: 0.67831 (Simulation time: 0 hr 23 min 45 sec) 
Heartbeat CPU  0 instructions:  484000000 cycles:  645168731 heartbeat IPC: 0.69464 cumulative IPC: 0.67835 (Simulation time: 0 hr 23 min 48 sec) 
Heartbeat CPU  0 instructions:  485000001 cycles:  646621401 heartbeat IPC: 0.68839 cumulative IPC: 0.67838 (Simulation time: 0 hr 23 min 51 sec) 
Heartbeat CPU  0 instructions:  486000000 cycles:  648072061 heartbeat IPC: 0.68934 cumulative IPC: 0.67841 (Simulation time: 0 hr 23 min 54 sec) 
Heartbeat CPU  0 instructions:  487000001 cycles:  649483198 heartbeat IPC: 0.70865 cumulative IPC: 0.67848 (Simulation time: 0 hr 23 min 57 sec) 
Heartbeat CPU  0 instructions:  488000000 cycles:  650953576 heartbeat IPC: 0.68010 cumulative IPC: 0.67849 (Simulation time: 0 hr 24 min 0 sec) 
Heartbeat CPU  0 instructions:  489000002 cycles:  652403714 heartbeat IPC: 0.68959 cumulative IPC: 0.67851 (Simulation time: 0 hr 24 min 3 sec) 
Heartbeat CPU  0 instructions:  490000001 cycles:  653841080 heartbeat IPC: 0.69572 cumulative IPC: 0.67856 (Simulation time: 0 hr 24 min 6 sec) 
Heartbeat CPU  0 instructions:  491000001 cycles:  655290026 heartbeat IPC: 0.69016 cumulative IPC: 0.67859 (Simulation time: 0 hr 24 min 9 sec) 
Heartbeat CPU  0 instructions:  492000000 cycles:  656728302 heartbeat IPC: 0.69528 cumulative IPC: 0.67863 (Simulation time: 0 hr 24 min 12 sec) 
Heartbeat CPU  0 instructions:  493000003 cycles:  658203167 heartbeat IPC: 0.67803 cumulative IPC: 0.67863 (Simulation time: 0 hr 24 min 16 sec) 
Heartbeat CPU  0 instructions:  494000001 cycles:  659625823 heartbeat IPC: 0.70291 cumulative IPC: 0.67869 (Simulation time: 0 hr 24 min 19 sec) 
Heartbeat CPU  0 instructions:  495000000 cycles:  661067089 heartbeat IPC: 0.69383 cumulative IPC: 0.67872 (Simulation time: 0 hr 24 min 22 sec) 
Heartbeat CPU  0 instructions:  496000000 cycles:  662558260 heartbeat IPC: 0.67061 cumulative IPC: 0.67870 (Simulation time: 0 hr 24 min 25 sec) 
Heartbeat CPU  0 instructions:  497000002 cycles:  663986553 heartbeat IPC: 0.70014 cumulative IPC: 0.67876 (Simulation time: 0 hr 24 min 28 sec) 
Heartbeat CPU  0 instructions:  498000000 cycles:  665432078 heartbeat IPC: 0.69179 cumulative IPC: 0.67879 (Simulation time: 0 hr 24 min 31 sec) 
Heartbeat CPU  0 instructions:  499000001 cycles:  666862777 heartbeat IPC: 0.69896 cumulative IPC: 0.67884 (Simulation time: 0 hr 24 min 34 sec) 
Heartbeat CPU  0 instructions:  500000000 cycles:  668339203 heartbeat IPC: 0.67731 cumulative IPC: 0.67883 (Simulation time: 0 hr 24 min 37 sec) 
Heartbeat CPU  0 instructions:  501000000 cycles:  669781858 heartbeat IPC: 0.69317 cumulative IPC: 0.67887 (Simulation time: 0 hr 24 min 40 sec) 
Heartbeat CPU  0 instructions:  502000003 cycles:  671195804 heartbeat IPC: 0.70724 cumulative IPC: 0.67894 (Simulation time: 0 hr 24 min 43 sec) 
Heartbeat CPU  0 instructions:  503000003 cycles:  672643181 heartbeat IPC: 0.69090 cumulative IPC: 0.67897 (Simulation time: 0 hr 24 min 46 sec) 
Heartbeat CPU  0 instructions:  504000000 cycles:  674111579 heartbeat IPC: 0.68101 cumulative IPC: 0.67897 (Simulation time: 0 hr 24 min 49 sec) 
Heartbeat CPU  0 instructions:  505000001 cycles:  675549800 heartbeat IPC: 0.69530 cumulative IPC: 0.67901 (Simulation time: 0 hr 24 min 52 sec) 
Heartbeat CPU  0 instructions:  506000001 cycles:  676990030 heartbeat IPC: 0.69433 cumulative IPC: 0.67905 (Simulation time: 0 hr 24 min 56 sec) 
Heartbeat CPU  0 instructions:  507000003 cycles:  678414891 heartbeat IPC: 0.70182 cumulative IPC: 0.67910 (Simulation time: 0 hr 24 min 59 sec) 
Heartbeat CPU  0 instructions:  508000000 cycles:  679861242 heartbeat IPC: 0.69139 cumulative IPC: 0.67913 (Simulation time: 0 hr 25 min 2 sec) 
Heartbeat CPU  0 instructions:  509000000 cycles:  681286646 heartbeat IPC: 0.70156 cumulative IPC: 0.67918 (Simulation time: 0 hr 25 min 5 sec) 
Heartbeat CPU  0 instructions:  510000002 cycles:  682749191 heartbeat IPC: 0.68374 cumulative IPC: 0.67919 (Simulation time: 0 hr 25 min 8 sec) 
Heartbeat CPU  0 instructions:  511000003 cycles:  684221761 heartbeat IPC: 0.67909 cumulative IPC: 0.67919 (Simulation time: 0 hr 25 min 11 sec) 
Heartbeat CPU  0 instructions:  512000000 cycles:  685651794 heartbeat IPC: 0.69928 cumulative IPC: 0.67924 (Simulation time: 0 hr 25 min 14 sec) 
Heartbeat CPU  0 instructions:  513000001 cycles:  687099585 heartbeat IPC: 0.69071 cumulative IPC: 0.67927 (Simulation time: 0 hr 25 min 17 sec) 
Heartbeat CPU  0 instructions:  514000003 cycles:  688533226 heartbeat IPC: 0.69753 cumulative IPC: 0.67931 (Simulation time: 0 hr 25 min 20 sec) 
Heartbeat CPU  0 instructions:  515000002 cycles:  690014436 heartbeat IPC: 0.67512 cumulative IPC: 0.67930 (Simulation time: 0 hr 25 min 23 sec) 
Heartbeat CPU  0 instructions:  516000000 cycles:  691454611 heartbeat IPC: 0.69436 cumulative IPC: 0.67934 (Simulation time: 0 hr 25 min 26 sec) 
Heartbeat CPU  0 instructions:  517000001 cycles:  692882372 heartbeat IPC: 0.70040 cumulative IPC: 0.67939 (Simulation time: 0 hr 25 min 29 sec) 
Heartbeat CPU  0 instructions:  518000000 cycles:  694387078 heartbeat IPC: 0.66458 cumulative IPC: 0.67935 (Simulation time: 0 hr 25 min 32 sec) 
Heartbeat CPU  0 instructions:  519000003 cycles:  695844181 heartbeat IPC: 0.68630 cumulative IPC: 0.67937 (Simulation time: 0 hr 25 min 35 sec) 
Heartbeat CPU  0 instructions:  520000000 cycles:  697280150 heartbeat IPC: 0.69639 cumulative IPC: 0.67941 (Simulation time: 0 hr 25 min 39 sec) 
Heartbeat CPU  0 instructions:  521000000 cycles:  698733674 heartbeat IPC: 0.68798 cumulative IPC: 0.67943 (Simulation time: 0 hr 25 min 42 sec) 
Heartbeat CPU  0 instructions:  522000003 cycles:  700204467 heartbeat IPC: 0.67991 cumulative IPC: 0.67943 (Simulation time: 0 hr 25 min 45 sec) 
Heartbeat CPU  0 instructions:  523000002 cycles:  701687153 heartbeat IPC: 0.67445 cumulative IPC: 0.67942 (Simulation time: 0 hr 25 min 48 sec) 
Heartbeat CPU  0 instructions:  524000000 cycles:  703107951 heartbeat IPC: 0.70383 cumulative IPC: 0.67947 (Simulation time: 0 hr 25 min 51 sec) 
Heartbeat CPU  0 instructions:  525000001 cycles:  704548015 heartbeat IPC: 0.69441 cumulative IPC: 0.67951 (Simulation time: 0 hr 25 min 54 sec) 
Heartbeat CPU  0 instructions:  526000000 cycles:  706030549 heartbeat IPC: 0.67452 cumulative IPC: 0.67949 (Simulation time: 0 hr 25 min 57 sec) 
Heartbeat CPU  0 instructions:  527000002 cycles:  707458869 heartbeat IPC: 0.70012 cumulative IPC: 0.67954 (Simulation time: 0 hr 26 min 0 sec) 
[...]
Heartbeat CPU  0 instructions:  559000000 cycles:  752081836 heartbeat IPC: 0.71081 cumulative IPC: 0.68203 (Simulation time: 0 hr 27 min 37 sec) 
Heartbeat CPU  0 instructions:  560000000 cycles:  753492041 heartbeat IPC: 0.70912 cumulative IPC: 0.68209 (Simulation time: 0 hr 27 min 40 sec) 
Heartbeat CPU  0 instructions:  561000000 cycles:  754900278 heartbeat IPC: 0.71011 cumulative IPC: 0.68215 (Simulation time: 0 hr 27 min 43 sec) 
Heartbeat CPU  0 instructions:  562000003 cycles:  756303028 heartbeat IPC: 0.71289 cumulative IPC: 0.68221 (Simulation time: 0 hr 27 min 46 sec) 
Heartbeat CPU  0 instructions:  563000003 cycles:  757716832 heartbeat IPC: 0.70731 cumulative IPC: 0.68226 (Simulation time: 0 hr 27 min 49 sec) 
Heartbeat CPU  0 instructions:  564000000 cycles:  759124370 heartbeat IPC: 0.71046 cumulative IPC: 0.68232 (Simulation time: 0 hr 27 min 52 sec) 
Heartbeat CPU  0 instructions:  565000001 cycles:  760528425 heartbeat IPC: 0.71222 cumulative IPC: 0.68238 (Simulation time: 0 hr 27 min 55 sec) 
Heartbeat CPU  0 instructions:  566000001 cycles:  761947150 heartbeat IPC: 0.70486 cumulative IPC: 0.68243 (Simulation time: 0 hr 27 min 58 sec) 
Heartbeat CPU  0 instructions:  567000000 cycles:  763363546 heartbeat IPC: 0.70602 cumulative IPC: 0.68248 (Simulation time: 0 hr 28 min 1 sec) 
Heartbeat CPU  0 instructions:  568000000 cycles:  764770218 heartbeat IPC: 0.71090 cumulative IPC: 0.68254 (Simulation time: 0 hr 28 min 4 sec) 
Heartbeat CPU  0 instructions:  569000003 cycles:  766182981 heartbeat IPC: 0.70783 cumulative IPC: 0.68259 (Simulation time: 0 hr 28 min 7 sec) 
Heartbeat CPU  0 instructions:  570000000 cycles:  767603220 heartbeat IPC: 0.70410 cumulative IPC: 0.68263 (Simulation time: 0 hr 28 min 10 sec) 
Heartbeat CPU  0 instructions:  571000000 cycles:  769018883 heartbeat IPC: 0.70638 cumulative IPC: 0.68268 (Simulation time: 0 hr 28 min 13 sec) 
Heartbeat CPU  0 instructions:  572000000 cycles:  770432324 heartbeat IPC: 0.70749 cumulative IPC: 0.68273 (Simulation time: 0 hr 28 min 16 sec) 
Heartbeat CPU  0 instructions:  573000000 cycles:  771843670 heartbeat IPC: 0.70854 cumulative IPC: 0.68279 (Simulation time: 0 hr 28 min 19 sec) 
Heartbeat CPU  0 instructions:  574000001 cycles:  773255301 heartbeat IPC: 0.70840 cumulative IPC: 0.68284 (Simulation time: 0 hr 28 min 22 sec) 
Heartbeat CPU  0 instructions:  575000001 cycles:  774685169 heartbeat IPC: 0.69937 cumulative IPC: 0.68287 (Simulation time: 0 hr 28 min 25 sec) 
Heartbeat CPU  0 instructions:  576000000 cycles:  776099709 heartbeat IPC: 0.70694 cumulative IPC: 0.68292 (Simulation time: 0 hr 28 min 28 sec) 
Heartbeat CPU  0 instructions:  577000001 cycles:  777513523 heartbeat IPC: 0.70731 cumulative IPC: 0.68297 (Simulation time: 0 hr 28 min 31 sec) 
Heartbeat CPU  0 instructions:  578000001 cycles:  778930520 heartbeat IPC: 0.70572 cumulative IPC: 0.68302 (Simulation time: 0 hr 28 min 34 sec) 
Heartbeat CPU  0 instructions:  579000000 cycles:  780363072 heartbeat IPC: 0.69805 cumulative IPC: 0.68305 (Simulation time: 0 hr 28 min 37 sec) 
Heartbeat CPU  0 instructions:  580000000 cycles:  781770801 heartbeat IPC: 0.71036 cumulative IPC: 0.68310 (Simulation time: 0 hr 28 min 41 sec) 
Heartbeat CPU  0 instructions:  581000002 cycles:  783175239 heartbeat IPC: 0.71203 cumulative IPC: 0.68316 (Simulation time: 0 hr 28 min 44 sec) 
Heartbeat CPU  0 instructions:  582000000 cycles:  784599346 heartbeat IPC: 0.70219 cumulative IPC: 0.68320 (Simulation time: 0 hr 28 min 47 sec) 
Heartbeat CPU  0 instructions:  583000000 cycles:  786012129 heartbeat IPC: 0.70782 cumulative IPC: 0.68325 (Simulation time: 0 hr 28 min 50 sec) 
Heartbeat CPU  0 instructions:  584000000 cycles:  787419312 heartbeat IPC: 0.71064 cumulative IPC: 0.68330 (Simulation time: 0 hr 28 min 53 sec) 
Heartbeat CPU  0 instructions:  585000003 cycles:  788835704 heartbeat IPC: 0.70602 cumulative IPC: 0.68335 (Simulation time: 0 hr 28 min 56 sec) 
Heartbeat CPU  0 instructions:  586000000 cycles:  790243335 heartbeat IPC: 0.71041 cumulative IPC: 0.68340 (Simulation time: 0 hr 28 min 59 sec) 
Heartbeat CPU  0 instructions:  587000001 cycles:  791648669 heartbeat IPC: 0.71158 cumulative IPC: 0.68346 (Simulation time: 0 hr 29 min 2 sec) 
Heartbeat CPU  0 instructions:  588000000 cycles:  793081374 heartbeat IPC: 0.69798 cumulative IPC: 0.68348 (Simulation time: 0 hr 29 min 5 sec) 
Heartbeat CPU  0 instructions:  589000000 cycles:  794490492 heartbeat IPC: 0.70966 cumulative IPC: 0.68354 (Simulation time: 0 hr 29 min 8 sec) 
Heartbeat CPU  0 instructions:  590000003 cycles:  795910672 heartbeat IPC: 0.70414 cumulative IPC: 0.68358 (Simulation time: 0 hr 29 min 11 sec) 
Heartbeat CPU  0 instructions:  591000002 cycles:  797332396 heartbeat IPC: 0.70337 cumulative IPC: 0.68362 (Simulation time: 0 hr 29 min 14 sec) 
Heartbeat CPU  0 instructions:  592000000 cycles:  798744082 heartbeat IPC: 0.70837 cumulative IPC: 0.68366 (Simulation time: 0 hr 29 min 17 sec) 
Heartbeat CPU  0 instructions:  593000001 cycles:  800163242 heartbeat IPC: 0.70464 cumulative IPC: 0.68371 (Simulation time: 0 hr 29 min 20 sec) 
Heartbeat CPU  0 instructions:  594000000 cycles:  801579269 heartbeat IPC: 0.70620 cumulative IPC: 0.68375 (Simulation time: 0 hr 29 min 23 sec) 
Heartbeat CPU  0 instructions:  595000000 cycles:  802986533 heartbeat IPC: 0.71060 cumulative IPC: 0.68380 (Simulation time: 0 hr 29 min 26 sec) 
Heartbeat CPU  0 instructions:  596000000 cycles:  804399213 heartbeat IPC: 0.70787 cumulative IPC: 0.68385 (Simulation time: 0 hr 29 min 29 sec) 
Heartbeat CPU  0 instructions:  597000003 cycles:  805812569 heartbeat IPC: 0.70754 cumulative IPC: 0.68389 (Simulation time: 0 hr 29 min 32 sec) 
Heartbeat CPU  0 instructions:  598000002 cycles:  807221424 heartbeat IPC: 0.70980 cumulative IPC: 0.68395 (Simulation time: 0 hr 29 min 35 sec) 
Heartbeat CPU  0 instructions:  599000003 cycles:  808629892 heartbeat IPC: 0.70999 cumulative IPC: 0.68400 (Simulation time: 0 hr 29 min 38 sec) 
Heartbeat CPU  0 instructions:  600000000 cycles:  810038267 heartbeat IPC: 0.71004 cumulative IPC: 0.68405 (Simulation time: 0 hr 29 min 42 sec) 
Finished CPU 0 instructions: 500000000 cycles: 730945499 cumulative IPC: 0.68405 (Simulation time: 0 hr 29 min 42 sec) 

ChampSim completed all CPUs

[ROI Statistics]
Core_0_instructions 500000000
Core_0_cycles 730945499
Core_0_IPC 0.68405

Core_0_branch_prediction_accuracy 99.58640
Core_0_branch_MPKI 0.02120
Core_0_average_ROB_occupancy_at_mispredict 244.45033

Core_0_L1D_total_access 288357538
Core_0_L1D_total_hit 284047061
Core_0_L1D_total_miss 4310477
Core_0_L1D_loads 257379046
Core_0_L1D_load_hit 253069466
Core_0_L1D_load_miss 4309580
Core_0_L1D_RFOs 30978492
Core_0_L1D_RFO_hit 30977595
Core_0_L1D_RFO_miss 897
Core_0_L1D_prefetches 0
Core_0_L1D_prefetch_hit 0
Core_0_L1D_prefetch_miss 0
Core_0_L1D_writebacks 0
Core_0_L1D_writeback_hit 0
Core_0_L1D_writeback_miss 0
Core_0_L1D_prefetch_requested 0
Core_0_L1D_prefetch_dropped 0
Core_0_L1D_prefetch_issued 0
Core_0_L1D_prefetch_filled 0
Core_0_L1D_prefetch_useful 0
Core_0_L1D_prefetch_useless 0
Core_0_L1D_prefetch_late 0
Core_0_L1D_average_miss_latency 25.21214

Core_0_L1D_rq_access 307606592
Core_0_L1D_rq_forward 0
Core_0_L1D_rq_merged 50179307
Core_0_L1D_rq_to_cache 257403797
Core_0_L1D_rq_full 0

Core_0_L1D_wq_access 30978597
Core_0_L1D_wq_forward 23488
Core_0_L1D_wq_merged 0
Core_0_L1D_wq_to_cache 30978597
Core_0_L1D_wq_full 0

Core_0_L1D_pq_access 0
Core_0_L1D_pq_forward 0
Core_0_L1D_pq_merged 0
Core_0_L1D_pq_to_cache 0
Core_0_L1D_pq_full 0

Core_0_L1D_acc_epochs 777888
Core_0_L1D_acc_level_0 777888
Core_0_L1D_acc_level_1 0
Core_0_L1D_acc_level_2 0
Core_0_L1D_acc_level_3 0
Core_0_L1D_acc_level_4 0
Core_0_L1D_acc_level_5 0
Core_0_L1D_acc_level_6 0
Core_0_L1D_acc_level_7 0
Core_0_L1D_acc_level_8 0
Core_0_L1D_acc_level_9 0

Core_0_L1I_total_access 133847158
Core_0_L1I_total_hit 133846981
Core_0_L1I_total_miss 177
Core_0_L1I_loads 133847158
Core_0_L1I_load_hit 133846981
Core_0_L1I_load_miss 177
Core_0_L1I_RFOs 0
Core_0_L1I_RFO_hit 0
Core_0_L1I_RFO_miss 0
Core_0_L1I_prefetches 0
Core_0_L1I_prefetch_hit 0
Core_0_L1I_prefetch_miss 0
Core_0_L1I_writebacks 0
Core_0_L1I_writeback_hit 0
Core_0_L1I_writeback_miss 0
Core_0_L1I_prefetch_requested 0
Core_0_L1I_prefetch_dropped 0
Core_0_L1I_prefetch_issued 0
Core_0_L1I_prefetch_filled 0
Core_0_L1I_prefetch_useful 0
Core_0_L1I_prefetch_useless 0
Core_0_L1I_prefetch_late 0
Core_0_L1I_average_miss_latency 141.46328

Core_0_L1I_rq_access 500000003
Core_0_L1I_rq_forward 0
Core_0_L1I_rq_merged 366152775
Core_0_L1I_rq_to_cache 133847228
Core_0_L1I_rq_full 0

Core_0_L1I_wq_access 0
Core_0_L1I_wq_forward 0
Core_0_L1I_wq_merged 0
Core_0_L1I_wq_to_cache 0
Core_0_L1I_wq_full 0

Core_0_L1I_pq_access 0
Core_0_L1I_pq_forward 0
Core_0_L1I_pq_merged 0
Core_0_L1I_pq_to_cache 0
Core_0_L1I_pq_full 0

Core_0_L1I_acc_epochs 777888
Core_0_L1I_acc_level_0 777888
Core_0_L1I_acc_level_1 0
Core_0_L1I_acc_level_2 0
Core_0_L1I_acc_level_3 0
Core_0_L1I_acc_level_4 0
Core_0_L1I_acc_level_5 0
Core_0_L1I_acc_level_6 0
Core_0_L1I_acc_level_7 0
Core_0_L1I_acc_level_8 0
Core_0_L1I_acc_level_9 0

Core_0_L2C_total_access 9761451
Core_0_L2C_total_hit 5805372
Core_0_L2C_total_miss 3956079
Core_0_L2C_loads 4308824
Core_0_L2C_load_hit 3878640
Core_0_L2C_load_miss 430184
Core_0_L2C_RFOs 773
Core_0_L2C_RFO_hit 753
Core_0_L2C_RFO_miss 20
Core_0_L2C_prefetches 3525800
Core_0_L2C_prefetch_hit 15
Core_0_L2C_prefetch_miss 3525785
Core_0_L2C_writebacks 1926054
Core_0_L2C_writeback_hit 1925964
Core_0_L2C_writeback_miss 90
Core_0_L2C_prefetch_requested 7904090
Core_0_L2C_prefetch_dropped 0
Core_0_L2C_prefetch_issued 7904090
Core_0_L2C_prefetch_filled 4247833
Core_0_L2C_prefetch_useful 3540341
Core_0_L2C_prefetch_useless 707124
Core_0_L2C_prefetch_late 134
Core_0_L2C_average_miss_latency 92.21102

Core_0_L2C_rq_access 4310654
Core_0_L2C_rq_forward 0
Core_0_L2C_rq_merged 0
Core_0_L2C_rq_to_cache 4309597
Core_0_L2C_rq_full 0

Core_0_L2C_wq_access 1926054
Core_0_L2C_wq_forward 1057
Core_0_L2C_wq_merged 0
Core_0_L2C_wq_to_cache 1926054
Core_0_L2C_wq_full 0

Core_0_L2C_pq_access 7904090
Core_0_L2C_pq_forward 0
Core_0_L2C_pq_merged 460
Core_0_L2C_pq_to_cache 7903630
Core_0_L2C_pq_full 0

Core_0_L2C_acc_epochs 777888
Core_0_L2C_acc_level_0 35124
Core_0_L2C_acc_level_1 4701
Core_0_L2C_acc_level_2 10532
Core_0_L2C_acc_level_3 22946
Core_0_L2C_acc_level_4 32031
Core_0_L2C_acc_level_5 44702
Core_0_L2C_acc_level_6 69284
Core_0_L2C_acc_level_7 74215
Core_0_L2C_acc_level_8 80574
Core_0_L2C_acc_level_9 403779

Core_0_LLC_total_access 8579966
Core_0_LLC_total_hit 4814812
Core_0_LLC_total_miss 3765154
Core_0_LLC_loads 430058
Core_0_LLC_load_hit 282357
Core_0_LLC_load_miss 147701
Core_0_LLC_RFOs 20
Core_0_LLC_RFO_hit 8
Core_0_LLC_RFO_miss 12
Core_0_LLC_prefetches 6240267
Core_0_LLC_prefetch_hit 2733755
Core_0_LLC_prefetch_miss 3506512
Core_0_LLC_writebacks 1909621
Core_0_LLC_writeback_hit 1798692
Core_0_LLC_writeback_miss 110929
Core_0_LLC_prefetch_requested 0
Core_0_LLC_prefetch_dropped 0
Core_0_LLC_prefetch_issued 0
Core_0_LLC_prefetch_filled 4667752
Core_0_LLC_prefetch_useful 490267
Core_0_LLC_prefetch_useless 4145753
Core_0_LLC_prefetch_late 33
Core_0_LLC_average_miss_latency 197.49092

Core_0_LLC_rq_access 430078
Core_0_LLC_rq_forward 0
Core_0_LLC_rq_merged 0
Core_0_LLC_rq_to_cache 430078
Core_0_LLC_rq_full 0

Core_0_LLC_wq_access 1909621
Core_0_LLC_wq_forward 0
Core_0_LLC_wq_merged 0
Core_0_LLC_wq_to_cache 1909621
Core_0_LLC_wq_full 0

Core_0_LLC_pq_access 7902239
Core_0_LLC_pq_forward 0
Core_0_LLC_pq_merged 215
Core_0_LLC_pq_to_cache 7902024
Core_0_LLC_pq_full 0

Core_0_LLC_acc_epochs 791054
Core_0_LLC_acc_level_0 636907
Core_0_LLC_acc_level_1 59511
Core_0_LLC_acc_level_2 32030
Core_0_LLC_acc_level_3 18764
Core_0_LLC_acc_level_4 8926
Core_0_LLC_acc_level_5 7748
Core_0_LLC_acc_level_6 5931
Core_0_LLC_acc_level_7 4371
Core_0_LLC_acc_level_8 3625
Core_0_LLC_acc_level_9 13241

Core_0_major_page_fault 0
Core_0_minor_page_fault 169020

[MLOP] History of tracked zone:
IIIIIIIIIIIIIIIIIIIIIIIIIIIIIIIIIIIIIIIIIIIIIIIIIIIIIIIIIIIIIIII
A4IIIIIIIIIIIIIIIIIIIIIIIIIII44IIIIIIIIIIIIIIIIIIIIIIIIIIIIIIIII
AA4IIIIIIIIIIIIIIIIIIIIIIIIII444IIIIIIIIIIIIIIIIIIIIIIIIIIIIIIII
AAA4IIIIIIIIIIIIIIIIIIIIIIIII4444IIIIIIIIIIIIIIIIIIIIIIIIIIIIIII
AAAA4IIIIIIIIIIIIIIIIIIIIIIII44444IIIIIIIIIIIIIIIIIIIIIIIIIIIIII
AAAAA4IIIIIIIIIIIIIIIIIIIIIII444444IIIIIIIIIIIIIIIIIIIIIIIIIIIII
AAAAAA4IIIIIIIIIIIIIIIIIIIIII4444444IIIIIIIIIIIIIIIIIIIIIIIIIIII
AAAAAAA4IIIIIIIIIIIIIIIIIIIII44444444IIIIIIIIIIIIIIIIIIIIIIIIIII
AAAAAAAA4IIIIIIIIIIIIIIIIIIII444444444IIIIIIIIIIIIIIIIIIIIIIIIII
AAAAAAAAA4IIIIIIIIIIIIIIIIIII4444444444IIIIIIIIIIIIIIIIIIIIIIIII
AAAAAAAAAA4IIIIIIIIIIIIIIIIII44444444444IIIIIIIIIIIIIIIIIIIIIIII
AAAAAAAAAAA4IIIIIIIIIIIIIIIII444444444444IIIIIIIIIIIIIIIIIIIIIII
AAAAAAAAAAAA4IIIIIIIIIIIIIIII4444444444444IIIIIIIIIIIIIIIIIIIIII
AAAAAAAAAAAAA4IIIIIIIIIIIIIII44444444444444IIIIIIIIIIIIIIIIIIIII
AAAAAAAAAAAAAA4IIIIIIIIIIIIII444444444444444IIIIIIIIIIIIIIIIIIII
AAAAAAAAAAAAAAA4IIIIIIIIIIIII4444444444444444IIIIIIIIIIIIIIIIIII
AAAAAAAAAAAAAAAA4IIIIIIIIIIII44444444444444444IIIIIIIIIIIIIIIIII
AAAAAAAAAAAAAAAAA4IIIIIIIIIII444444444444444444IIIIIIIIIIIIIIIII
AAAAAAAAAAAAAAAAAA4IIIIIIIIII4444444444444444444IIIIIIIIIIIIIIII
AAAAAAAAAAAAAAAAAAA4IIIIIIIII44444444444444444444IIIIIIIIIIIIIII
AAAAAAAAAAAAAAAAAAAA4IIIIIIII444444444444444444444IIIIIIIIIIIIII
AAAAAAAAAAAAAAAAAAAAA4IIIIIII4444444444444444444444IIIIIIIIIIIII
AAAAAAAAAAAAAAAAAAAAAA4IIIIII44444444444444444444444IIIIIIIIIIII
AAAAAAAAAAAAAAAAAAAAAAA4IIIII444444444444444444444444IIIIIIIIIII
AAAAAAAAAAAAAAAAAAAAAAAA4IIII4444444444444444444444444IIIIIIIIII
AAAAAAAAAAAAAAAAAAAAAAAAA4III44444444444444444444444444IIIIIIIII
AAAAAAAAAAAAAAAAAAAAAAAAAA4II444444444444444444444444444IIIIIIII
AAAAAAAAAAAAAAAAAAAAAAAAAAA4I4444444444444444444444444444IIIIIII
AAAAAAAAAAAAAAAAAAAAAAAAAAAA444444444444444444444444444444IIIIII
AAAAAAAAAAAAAAAAAAAAAAAAAAAAA444444444444444444444444444444IIIII
AAAAAAAAAAAAAAAAAAAAAAAAAAAAAA444444444444444444444444444444IIII
AAAAAAAAAAAAAAAAAAAAAAAAAAAAAAA444444444444444444444444444444III
AAAAAAAAAAAAAAAAAAAAAAAAAAAAAAAA444444444444444444444444444444II
AAAAAAAAAAAAAAAAAAAAAAAAAAAAAAAAA444444444444444444444444444444I
AAAAAAAAAAAAAAAAAAAAAAAAAAAAAAAAAA444444444444444444444444444444
AAAAAAAAAAAAAAAAAAAAAAAAAAAAAAAAAAA44444444444444444444444444444
AAAAAAAAAAAAAAAAAAAAAAAAAAAAAAAAAAAA4444444444444444444444444444
AAAAAAAAAAAAAAAAAAAAAAAAAAAAAAAAAAAAA444444444444444444444444444
AAAAAAAAAAAAAAAAAAAAAAAAAAAAAAAAAAAAAA44444444444444444444444444
AAAAAAAAAAAAAAAAAAAAAAAAAAAAAAAAAAAAAAA4444444444444444444444444
AAAAAAAAAAAAAAAAAAAAAAAAAAAAAAAAAAAAAAAA444444444444444444444444
AAAAAAAAAAAAAAAAAAAAAAAAAAAAAAAAAAAAAAAAA24444444444444444444444
AAAAAAAAAAAAAAAAAAAAAAAAAAAAAAAAAAAAAAAAAA2444444444444444444444
AAAAAAAAAAAAAAAAAAAAAAAAAAAAAAAAAAAAAAAAAAA244444444444444444444
AAAAAAAAAAAAAAAAAAAAAAAAAAAAAAAAAAAAAAAAAAAA24444444444444444444
AAAAAAAAAAAAAAAAAAAAAAAAAAAAAAAAAAAAAAAAAAAAA2444444444444444444
AAAAAAAAAAAAAAAAAAAAAAAAAAAAAAAAAAAAAAAAAAAAAA244444444444444444
AAAAAAAAAAAAAAAAAAAAAAAAAAAAAAAAAAAAAAAAAAAAAAA24444444444444444
AAAAAAAAAAAAAAAAAAAAAAAAAAAAAAAAAAAAAAAAAAAAAAAA2444444444444444
AAAAAAAAAAAAAAAAAAAAAAAAAAAAAAAAAAAAAAAAAAAAAAAAA244444444444444
AAAAAAAAAAAAAAAAAAAAAAAAAAAAAAAAAAAAAAAAAAAAAAAAAA24444444444444
AAAAAAAAAAAAAAAAAAAAAAAAAAAAAAAAAAAAAAAAAAAAAAAAAAA2444444444444
AAAAAAAAAAAAAAAAAAAAAAAAAAAAAAAAAAAAAAAAAAAAAAAAAAAA244444444444
AAAAAAAAAAAAAAAAAAAAAAAAAAAAAAAAAAAAAAAAAAAAAAAAAAAAA24444444444
AAAAAAAAAAAAAAAAAAAAAAAAAAAAAAAAAAAAAAAAAAAAAAAAAAAAAA2444444444
AAAAAAAAAAAAAAAAAAAAAAAAAAAAAAAAAAAAAAAAAAAAAAAAAAAAAAA244444444
AAAAAAAAAAAAAAAAAAAAAAAAAAAAAAAAAAAAAAAAAAAAAAAAAAAAAAAA24444444
AAAAAAAAAAAAAAAAAAAAAAAAAAAAAAAAAAAAAAAAAAAAAAAAAAAAAAAAA2444444
AAAAAAAAAAAAAAAAAAAAAAAAAAAAAAAAAAAAAAAAAAAAAAAAAAAAAAAAAA244444
AAAAAAAAAAAAAAAAAAAAAAAAAAAAAAAAAAAAAAAAAAAAAAAAAAAAAAAAAAA24444
AAAAAAAAAAAAAAAAAAAAAAAAAAAAAAAAAAAAAAAAAAAAAAAAAAAAAAAAAAAA2444
AAAAAAAAAAAAAAAAAAAAAAAAAAAAAAAAAAAAAAAAAAAAAAAAAAAAAAAAAAAAA244
AAAAAAAAAAAAAAAAAAAAAAAAAAAAAAAAAAAAAAAAAAAAAAAAAAAAAAAAAAAAAA24
AAAAAAAAAAAAAAAAAAAAAAAAAAAAAAAAAAAAAAAAAAAAAAAAAAAAAAAAAAAAAAA2
AAAAAAAAAAAAAAAAAAAAAAAAAAAAAAAAAAAAAAAAAAAAAAAAAAAAAAAAAAAAAAAA
AIAAAAAAAAAAAAAAAAAAAAAAAAAAAAAAAAAAAAAAAAAAAAAAAAAAAAAAAAAAAAAA
AIAIAAAAAAAAAAAAAAAAAAAAAAAAAAAAAAAAAAAAAAAAAAAAAAAAAAAAAAAAAAAA
AIAIIAAAAAAAAAAAAAAAAAAAAAAAAAAAAAAAAAAAAAAAAAAAAAAAAAAAAAAAAAAA
AIAIIIAAAAAAAAAAAAAAAAAAAAAAAAAAAAAAAAAAAAAAAAAAAAAAAAAAAAAAAAAA
AIAIIIAAAAAAAAAAAAAAAAAAAAAAAAIAAAAAAAAAAAAAAAAAAAAAAAAAAAAAAAAA
AIAIIIAAAAAAAAAAAAAAAAAAAAAAAIIAAAAAAAAAAAAAAAAAAAAAAAAAAAAAAAAA
AIAIIIAAAAAAAAAAAAAAAAAAAAAAAIIIAAAAAAAAAAAAAAAAAAAAAAAAAAAAAAAA
AIAIIIAAAAAAAAAAAAAAAAAAAAAAAIIIIAAAAAAAAAAAAAAAAAAAAAAAAAAAAAAA
AIIIIIAAAAAAAAAAAAAAAAAAAAAAAIIIIAAAAAAAAAAAAAAAAAAAAAAAAAAAAAAA
AIIIIIAAAAAAAAAAAAAAAAAAAAAAAIIIIAAAAAAAAAAAAAAAAAAAAAAAAAAAIAAA
AIIIIIAAAAAAAAAAAAAAAAAAAAAAAIIIIIAAAAAAAAAAAAAAAAAAAAAAAAAAIAAA
AIIIIIAAAAAAAAAAAAAAAAAAAAAAAIIIIIIAAAAAAAAAAAAAAAAAAAAAAAAAIAAA
AIIIIIAAAAAAAAAAAAAAAAAAAAAAAIIIIIIAAAAAAAAIAAAAAAAAAAAAAAAAIAAA
AIIIIIAAAAAAAAAAAAAAAAAAAAAAAIIIIIIAAAAAAAAIAAAAAAAAAAAAAAIAIAAA
AIIIIIAAAAAAAAAAIAAAAAAAAAAAAIIIIIIAAAAAAAAIAAAAAAAAAAAAAAIAIAAA
AIIIIIAAAAAAAAAAIAAAAAAAAAAAAIIIIIIAAAAAAAAIAAAAAAAAAAAAAAIAIIAA
AIIIIIAAAAAAAAAAIAAAAAAAAAAAAIIIIIIAAAAAAAAIAAAAAAAAAAAAAAIAIIIA
AIIIIIAAAAAIAAAAIAAAAAAAAAAAAIIIIIIAAAAAAAAIAAAAAAAAAAAAAAIAIIIA
AIIIIIAAAAAIAAAAIAAAAAAAAAAAAIIIIIIAAAAAAAAIIAAAAAAAAAAAAAIAIIIA
AIIIIIAAAAAIAAAAIAAAAAAAAAAAAIIIIIIAAAIAAAAIIAAAAAAAAAAAAAIAIIIA
AIIIIIAAAAAIAAAAIAAAAAAAAAAAAIIIIIIAAAIIAAAIIAAAAAAAAAAAAAIAIIIA
AIIIIIAAAAAIAAAAIAAAAAAAAAAAAIIIIIIIAAIIAAAIIAAAAAAAAAAAAAIAIIIA
AIIIIIAAAIAIAAAAIAAAAAAAAAAAAIIIIIIIAAIIAAAIIAAAAAAAAAAAAAIAIIIA
AIIIIIAAAIAIIAAAIAAAAAAAAAAAAIIIIIIIAAIIAAAIIAAAAAAAAAAAAAIAIIIA
AIIIIIAAAIAIIIAAIAAAAAAAAAAAAIIIIIIIAAIIAAAIIAAAAAAAAAAAAAIAIIIA
AIIIIIAAIIAIIIAAIAAAAAAAAAAAAIIIIIIIAAIIAAAIIAAAAAAAAAAAAAIAIIIA
AIIIIIAAIIAIIIAAIAAAAAAAAAAAAIIIIIIIIAIIAAAIIAAAAAAAAAAAAAIAIIIA
AIIIIIAAIIAIIIAAIAAAAAAAAAAAAIIIIIIIIAIIAAAIIAIAAAAAAAAAAAIAIIIA
AIIIIIAAIIAIIIAAIAIAAAAAAAAAAIIIIIIIIAIIAAAIIAIAAAAAAAAAAAIAIIIA
AIIIIIAAIIAIIIAAIAIAIAAAAAAAAIIIIIIIIAIIAAAIIAIAAAAAAAAAAAIAIIIA
AIIIIIAAIIAIIIAAIAIAIIAAAAAAAIIIIIIIIAIIAAAIIAIAAAAAAAAAAAIAIIIA
AIIIIIAAIIAIIIAAIAIAIIAAAAAAAIIIIIIIIAIIAAAIIAIAAAIAAAAAAAIAIIIA
AIIIIIAAIIAIIIAAIAIAIIAAAAAAAIIIIIIIIAIIAAAIIAIAAAIIAAAAAAIAIIIA
AIIIIIAAIIAIIIAAIAIAIIAAAIAAAIIIIIIIIAIIAAAIIAIAAAIIAAAAAAIAIIIA
AIIIIIAAIIAIIIAAIAIAIIAAAIAAAIIIIIIIIAIIAAAIIAIAAIIIAAAAAAIAIIIA
AIIIIIAAIIAIIIAAIAIAIIAAAIAAIIIIIIIIIAIIAAAIIAIAAIIIAAAAAAIAIIIA
AIIIIIAAIIAIIIAAIAIAIIAAAIAAIIIIIIIIIAIIAAAIIAIAAIIIAIAAAAIAIIIA
AIIIIIAAIIAIIIAAIAIAIIAAAIAAIIIIIIIIIAIIAAAIIAIAAIIIAIIAAAIAIIIA
AIIIIIAAIIAIIIAAIAIAIIAAAIAAIIIIIIIIIAIIAAAIIAIAAIIIAIIAIAIAIIIA
AIIIIIAAIIAIIIAAIAIAIIAAAIAIIIIIIIIIIAIIAAAIIAIAAIIIAIIAIAIAIIIA
AIIIIIAAIIAIIIAAIAIAIIAAAIAIIIIIIIIIIAIIAAAIIAIAAIIIAIIAIIIAIIIA
AIIIIIAAIIAIIIAAIAIAIIAIAIAIIIIIIIIIIAIIAAAIIAIAAIIIAIIAIIIAIIIA
AIIIIIAAIIAIIIAAIAIAIIAIAIAIIIIIIIIIIAIIAAAIIAIAAIIIIIIAIIIAIIIA
AIIIIIAAIIAIIIAAIAIAIIAIAIAIIIIIIIIIIAIIAIAIIAIAAIIIIIIAIIIAIIIA
AIIIIIAAIIAIIIAAIAIAIIAIAIAIIIIIIIIIIAIIAIAIIAIIAIIIIIIAIIIAIIIA
AIIIIIAIIIAIIIAAIAIAIIAIAIAIIIIIIIIIIAIIAIAIIAIIAIIIIIIAIIIAIIIA
AIIIIIAIIIAIIIAAIAIAIIAIAIAIIIIIIIIIIAIIAIIIIAIIAIIIIIIAIIIAIIIA
[MLOP] Prefetch Degree Mean: 11.41247
[MLOP] Prefetch Degree SD: 6.12807
[MLOP] Max Score Left Mean (%): 48.66046
[MLOP] Max Score Left SD (%): 23.34697
[MLOP] Max Score Right Mean (%): 89.29978
[MLOP] Max Score Right SD (%): 11.47299

Channel_0_RQ_row_buffer_hit 1820718
Channel_0_RQ_row_buffer_miss 1833507
Channel_0_WQ_row_buffer_hit 256330
Channel_0_WQ_row_buffer_miss 1648708
Channel_0_WQ_full 0
Channel_0_dbus_congested 993200

avg_congested_cycle 1

DRAM_bw_pochs 3164213
DRAM_bw_level_0 3142960
DRAM_bw_level_1 20647
DRAM_bw_level_2 606
DRAM_bw_level_3 0
