*************************************************
   ChampSim Multicore Out-of-Order Simulator
   Last compiled: Dec 11 2024 17:59:53
*************************************************
parsing config file: /home/functionmain/桌面/Pythia/config/spp_dev2.ini

trace_0 /home/functionmain/桌面/Pythia/traces/459.GemsFDTD-1211B.champsimtrace.xz
adding L2C_PREFETCHER: SPP_dev2
Initialize SIGNATURE TABLE
ST_SET: 1
ST_WAY: 256
ST_TAG_BIT: 16
ST_TAG_MASK: ffff

Initialize PATTERN TABLE
PT_SET: 512
PT_WAY: 4
SIG_DELTA_BIT: 7
C_SIG_BIT: 4
C_DELTA_BIT: 4

Initialize PREFETCH FILTER
FILTER_SET: 1024
fill_threshold: 90
pf_threshold: 40

Initialize SHIP state
warmup_instructions 100000000
simulation_instructions 500000000
champsim_seed 263
measure_ipc 0
measure_ipc_epoch 1000
measure_dram_bw 1
measure_dram_bw_epoch 256
measure_cache_acc 1
measure_cache_acc_epoch 1024
l1d_perfect 0
l2c_perfect 0
llc_perfect 0
l1d_semi_perfect 0
l2c_semi_perfect 0
llc_semi_perfect 0
semi_perfect_cache_page_buffer_size 64

num_cpus 1
cpu_freq 4000
dram_io_freq 150
page_size 4096
block_size 64
max_read_per_cycle 8
max_fill_per_cycle 1
dram_channels 1
log2_dram_channels 0
dram_ranks 1
dram_banks 8
dram_rows 65536
dram_columns 128
dram_row_size 8
dram_size 4096
dram_pages 1048576

fetch_width 6
decode_width 6
exec_width 4
lq_width 2
sq_width 2
retire_width 4
scheduler_size 128
branch_mispredict_penalty 20
rob_size 256
lq_size 72
sq_size 56
num_instr_destinations_sparc 4
num_instr_destinations 2
num_instr_sources 4

itlb_set 16
itlb_way 8
itlb_rq_size 16
itlb_wq_size 16
itlb_pq_size 0
itlb_mshr_size 8
itlb_latency 1

dtlb_set 16
dtlb_way 4
dtlb_rq_size 16
dtlb_wq_size 16
dtlb_pq_size 0
dtlb_mshr_size 8
dtlb_latency 1

stlb_set 128
stlb_way 12
stlb_rq_size 32
stlb_wq_size 32
stlb_pq_size 0
stlb_mshr_size 16
stlb_latency 8

l1i_size 32
l1i_set 64
l1i_way 8
l1i_rq_size 64
l1i_wq_size 64
l1i_pq_size 8
l1i_mshr_size 8
l1i_latency 1

l1d_size 32
l1d_set 64
l1d_way 8
l1d_rq_size 64
l1d_wq_size 64
l1d_pq_size 8
l1d_mshr_size 16
l1d_latency 4

l2c_size 256
l2c_set 512
l2c_way 8
l2c_rq_size 32
l2c_wq_size 32
l2c_pq_size 32
l2c_mshr_size 32
l2c_latency 10

llc_size 2048
llc_set 2048
llc_way 16
llc_rq_size 32
llc_wq_size 32
llc_pq_size 32
llc_mshr_size 64
llc_latency 20

dram_channel_width 8
dram_wq_size 64
dram_rq_size 64
tRP 15
tRCD 15
tCAS 12.5
dram_dbus_turn_around_time 30
dram_write_high_wm 56
dram_write_low_wm 48
min_dram_writes_per_switch 16
dram_mtps 150
dram_dbus_return_time 213


Heartbeat CPU  0 instructions:    1000003 cycles:     792316 heartbeat IPC: 1.26213 cumulative IPC: 1.26213 (Simulation time: 0 hr 0 min 2 sec) 
Heartbeat CPU  0 instructions:    2000002 cycles:    1584052 heartbeat IPC: 1.26305 cumulative IPC: 1.26259 (Simulation time: 0 hr 0 min 5 sec) 
Heartbeat CPU  0 instructions:    3000003 cycles:    2375810 heartbeat IPC: 1.26301 cumulative IPC: 1.26273 (Simulation time: 0 hr 0 min 7 sec) 
Heartbeat CPU  0 instructions:    4000000 cycles:    3167487 heartbeat IPC: 1.26314 cumulative IPC: 1.26283 (Simulation time: 0 hr 0 min 10 sec) 
Heartbeat CPU  0 instructions:    5000000 cycles:    3959187 heartbeat IPC: 1.26310 cumulative IPC: 1.26289 (Simulation time: 0 hr 0 min 12 sec) 
Heartbeat CPU  0 instructions:    6000002 cycles:    4750942 heartbeat IPC: 1.26302 cumulative IPC: 1.26291 (Simulation time: 0 hr 0 min 15 sec) 
Heartbeat CPU  0 instructions:    7000000 cycles:    5542531 heartbeat IPC: 1.26328 cumulative IPC: 1.26296 (Simulation time: 0 hr 0 min 18 sec) 
Heartbeat CPU  0 instructions:    8000000 cycles:    6334367 heartbeat IPC: 1.26289 cumulative IPC: 1.26295 (Simulation time: 0 hr 0 min 20 sec) 
Heartbeat CPU  0 instructions:    9000000 cycles:    7126140 heartbeat IPC: 1.26299 cumulative IPC: 1.26296 (Simulation time: 0 hr 0 min 23 sec) 
Heartbeat CPU  0 instructions:   10000001 cycles:    7917666 heartbeat IPC: 1.26338 cumulative IPC: 1.26300 (Simulation time: 0 hr 0 min 25 sec) 
Heartbeat CPU  0 instructions:   11000000 cycles:    8709103 heartbeat IPC: 1.26352 cumulative IPC: 1.26305 (Simulation time: 0 hr 0 min 28 sec) 
Heartbeat CPU  0 instructions:   12000000 cycles:    9500907 heartbeat IPC: 1.26294 cumulative IPC: 1.26304 (Simulation time: 0 hr 0 min 30 sec) 
Heartbeat CPU  0 instructions:   13000000 cycles:   10292611 heartbeat IPC: 1.26310 cumulative IPC: 1.26304 (Simulation time: 0 hr 0 min 33 sec) 
Heartbeat CPU  0 instructions:   14000002 cycles:   11084269 heartbeat IPC: 1.26317 cumulative IPC: 1.26305 (Simulation time: 0 hr 0 min 35 sec) 
Heartbeat CPU  0 instructions:   15000000 cycles:   11876022 heartbeat IPC: 1.26302 cumulative IPC: 1.26305 (Simulation time: 0 hr 0 min 38 sec) 
Heartbeat CPU  0 instructions:   16000000 cycles:   12667763 heartbeat IPC: 1.26304 cumulative IPC: 1.26305 (Simulation time: 0 hr 0 min 40 sec) 
Heartbeat CPU  0 instructions:   17000001 cycles:   13459534 heartbeat IPC: 1.26299 cumulative IPC: 1.26305 (Simulation time: 0 hr 0 min 43 sec) 
Heartbeat CPU  0 instructions:   18000002 cycles:   14251111 heartbeat IPC: 1.26330 cumulative IPC: 1.26306 (Simulation time: 0 hr 0 min 45 sec) 
Heartbeat CPU  0 instructions:   19000000 cycles:   15042920 heartbeat IPC: 1.26293 cumulative IPC: 1.26305 (Simulation time: 0 hr 0 min 48 sec) 
Heartbeat CPU  0 instructions:   20000000 cycles:   15834334 heartbeat IPC: 1.26356 cumulative IPC: 1.26308 (Simulation time: 0 hr 0 min 50 sec) 
Heartbeat CPU  0 instructions:   21000000 cycles:   16625833 heartbeat IPC: 1.26343 cumulative IPC: 1.26309 (Simulation time: 0 hr 0 min 53 sec) 
Heartbeat CPU  0 instructions:   22000003 cycles:   17417513 heartbeat IPC: 1.26314 cumulative IPC: 1.26310 (Simulation time: 0 hr 0 min 55 sec) 
Heartbeat CPU  0 instructions:   23000000 cycles:   18209250 heartbeat IPC: 1.26304 cumulative IPC: 1.26309 (Simulation time: 0 hr 0 min 58 sec) 
Heartbeat CPU  0 instructions:   24000000 cycles:   19000970 heartbeat IPC: 1.26307 cumulative IPC: 1.26309 (Simulation time: 0 hr 1 min 0 sec) 
Heartbeat CPU  0 instructions:   25000001 cycles:   19792739 heartbeat IPC: 1.26300 cumulative IPC: 1.26309 (Simulation time: 0 hr 1 min 3 sec) 
Heartbeat CPU  0 instructions:   26000002 cycles:   20584436 heartbeat IPC: 1.26311 cumulative IPC: 1.26309 (Simulation time: 0 hr 1 min 5 sec) 
Heartbeat CPU  0 instructions:   27000001 cycles:   21376043 heartbeat IPC: 1.26325 cumulative IPC: 1.26310 (Simulation time: 0 hr 1 min 8 sec) 
Heartbeat CPU  0 instructions:   28000000 cycles:   22167913 heartbeat IPC: 1.26283 cumulative IPC: 1.26309 (Simulation time: 0 hr 1 min 10 sec) 
Heartbeat CPU  0 instructions:   29000001 cycles:   22959678 heartbeat IPC: 1.26300 cumulative IPC: 1.26308 (Simulation time: 0 hr 1 min 13 sec) 
Heartbeat CPU  0 instructions:   30000002 cycles:   23751331 heartbeat IPC: 1.26318 cumulative IPC: 1.26309 (Simulation time: 0 hr 1 min 15 sec) 
Heartbeat CPU  0 instructions:   31000001 cycles:   24542935 heartbeat IPC: 1.26326 cumulative IPC: 1.26309 (Simulation time: 0 hr 1 min 18 sec) 
Heartbeat CPU  0 instructions:   32000000 cycles:   25334226 heartbeat IPC: 1.26376 cumulative IPC: 1.26311 (Simulation time: 0 hr 1 min 20 sec) 
Heartbeat CPU  0 instructions:   33000001 cycles:   26126051 heartbeat IPC: 1.26291 cumulative IPC: 1.26311 (Simulation time: 0 hr 1 min 23 sec) 
Heartbeat CPU  0 instructions:   34000003 cycles:   26917784 heartbeat IPC: 1.26305 cumulative IPC: 1.26311 (Simulation time: 0 hr 1 min 26 sec) 
Heartbeat CPU  0 instructions:   35000001 cycles:   27709477 heartbeat IPC: 1.26311 cumulative IPC: 1.26311 (Simulation time: 0 hr 1 min 28 sec) 
Heartbeat CPU  0 instructions:   36000000 cycles:   28501254 heartbeat IPC: 1.26298 cumulative IPC: 1.26310 (Simulation time: 0 hr 1 min 31 sec) 
Heartbeat CPU  0 instructions:   37000000 cycles:   29293046 heartbeat IPC: 1.26296 cumulative IPC: 1.26310 (Simulation time: 0 hr 1 min 33 sec) 
Heartbeat CPU  0 instructions:   38000000 cycles:   30084655 heartbeat IPC: 1.26325 cumulative IPC: 1.26310 (Simulation time: 0 hr 1 min 36 sec) 
Heartbeat CPU  0 instructions:   39000001 cycles:   30876265 heartbeat IPC: 1.26325 cumulative IPC: 1.26311 (Simulation time: 0 hr 1 min 38 sec) 
Heartbeat CPU  0 instructions:   40000000 cycles:   31659049 heartbeat IPC: 1.27749 cumulative IPC: 1.26346 (Simulation time: 0 hr 1 min 41 sec) 
Heartbeat CPU  0 instructions:   41000001 cycles:   32432058 heartbeat IPC: 1.29365 cumulative IPC: 1.26418 (Simulation time: 0 hr 1 min 43 sec) 
Heartbeat CPU  0 instructions:   42000003 cycles:   33204752 heartbeat IPC: 1.29418 cumulative IPC: 1.26488 (Simulation time: 0 hr 1 min 46 sec) 
Heartbeat CPU  0 instructions:   43000001 cycles:   33980511 heartbeat IPC: 1.28906 cumulative IPC: 1.26543 (Simulation time: 0 hr 1 min 49 sec) 
Heartbeat CPU  0 instructions:   44000000 cycles:   34771906 heartbeat IPC: 1.26359 cumulative IPC: 1.26539 (Simulation time: 0 hr 1 min 51 sec) 
Heartbeat CPU  0 instructions:   45000001 cycles:   35563226 heartbeat IPC: 1.26371 cumulative IPC: 1.26535 (Simulation time: 0 hr 1 min 54 sec) 
Heartbeat CPU  0 instructions:   46000003 cycles:   36354818 heartbeat IPC: 1.26328 cumulative IPC: 1.26531 (Simulation time: 0 hr 1 min 56 sec) 
Heartbeat CPU  0 instructions:   47000001 cycles:   37145953 heartbeat IPC: 1.26400 cumulative IPC: 1.26528 (Simulation time: 0 hr 1 min 59 sec) 
Heartbeat CPU  0 instructions:   48000000 cycles:   37937268 heartbeat IPC: 1.26372 cumulative IPC: 1.26525 (Simulation time: 0 hr 2 min 1 sec) 
Heartbeat CPU  0 instructions:   49000001 cycles:   38728391 heartbeat IPC: 1.26403 cumulative IPC: 1.26522 (Simulation time: 0 hr 2 min 4 sec) 
Heartbeat CPU  0 instructions:   50000003 cycles:   39519554 heartbeat IPC: 1.26396 cumulative IPC: 1.26520 (Simulation time: 0 hr 2 min 6 sec) 
Heartbeat CPU  0 instructions:   51000001 cycles:   40310973 heartbeat IPC: 1.26355 cumulative IPC: 1.26516 (Simulation time: 0 hr 2 min 9 sec) 
Heartbeat CPU  0 instructions:   52000000 cycles:   41102351 heartbeat IPC: 1.26362 cumulative IPC: 1.26513 (Simulation time: 0 hr 2 min 11 sec) 
Heartbeat CPU  0 instructions:   53000003 cycles:   41893833 heartbeat IPC: 1.26346 cumulative IPC: 1.26510 (Simulation time: 0 hr 2 min 14 sec) 
Heartbeat CPU  0 instructions:   54000002 cycles:   42685244 heartbeat IPC: 1.26356 cumulative IPC: 1.26507 (Simulation time: 0 hr 2 min 16 sec) 
Heartbeat CPU  0 instructions:   55000002 cycles:   43476483 heartbeat IPC: 1.26384 cumulative IPC: 1.26505 (Simulation time: 0 hr 2 min 19 sec) 
Heartbeat CPU  0 instructions:   56000000 cycles:   44267659 heartbeat IPC: 1.26394 cumulative IPC: 1.26503 (Simulation time: 0 hr 2 min 21 sec) 
Heartbeat CPU  0 instructions:   57000000 cycles:   45059185 heartbeat IPC: 1.26338 cumulative IPC: 1.26500 (Simulation time: 0 hr 2 min 24 sec) 
Heartbeat CPU  0 instructions:   58000002 cycles:   45850478 heartbeat IPC: 1.26376 cumulative IPC: 1.26498 (Simulation time: 0 hr 2 min 27 sec) 
Heartbeat CPU  0 instructions:   59000000 cycles:   46641909 heartbeat IPC: 1.26353 cumulative IPC: 1.26496 (Simulation time: 0 hr 2 min 29 sec) 
Heartbeat CPU  0 instructions:   60000000 cycles:   47433191 heartbeat IPC: 1.26377 cumulative IPC: 1.26494 (Simulation time: 0 hr 2 min 32 sec) 
Heartbeat CPU  0 instructions:   61000000 cycles:   48224298 heartbeat IPC: 1.26405 cumulative IPC: 1.26492 (Simulation time: 0 hr 2 min 34 sec) 
Heartbeat CPU  0 instructions:   62000002 cycles:   49015866 heartbeat IPC: 1.26332 cumulative IPC: 1.26490 (Simulation time: 0 hr 2 min 37 sec) 
Heartbeat CPU  0 instructions:   63000000 cycles:   49807241 heartbeat IPC: 1.26362 cumulative IPC: 1.26488 (Simulation time: 0 hr 2 min 39 sec) 
Heartbeat CPU  0 instructions:   64000000 cycles:   50598595 heartbeat IPC: 1.26366 cumulative IPC: 1.26486 (Simulation time: 0 hr 2 min 42 sec) 
Heartbeat CPU  0 instructions:   65000000 cycles:   51390154 heartbeat IPC: 1.26333 cumulative IPC: 1.26483 (Simulation time: 0 hr 2 min 44 sec) 
Heartbeat CPU  0 instructions:   66000003 cycles:   52181421 heartbeat IPC: 1.26380 cumulative IPC: 1.26482 (Simulation time: 0 hr 2 min 47 sec) 
Heartbeat CPU  0 instructions:   67000000 cycles:   52972782 heartbeat IPC: 1.26364 cumulative IPC: 1.26480 (Simulation time: 0 hr 2 min 49 sec) 
Heartbeat CPU  0 instructions:   68000000 cycles:   53763934 heartbeat IPC: 1.26398 cumulative IPC: 1.26479 (Simulation time: 0 hr 2 min 52 sec) 
Heartbeat CPU  0 instructions:   69000001 cycles:   54555285 heartbeat IPC: 1.26366 cumulative IPC: 1.26477 (Simulation time: 0 hr 2 min 54 sec) 
Heartbeat CPU  0 instructions:   70000002 cycles:   55346548 heartbeat IPC: 1.26380 cumulative IPC: 1.26476 (Simulation time: 0 hr 2 min 57 sec) 
Heartbeat CPU  0 instructions:   71000001 cycles:   56137828 heartbeat IPC: 1.26377 cumulative IPC: 1.26474 (Simulation time: 0 hr 2 min 59 sec) 
Heartbeat CPU  0 instructions:   72000000 cycles:   56928944 heartbeat IPC: 1.26404 cumulative IPC: 1.26473 (Simulation time: 0 hr 3 min 2 sec) 
Heartbeat CPU  0 instructions:   73000003 cycles:   57720606 heartbeat IPC: 1.26317 cumulative IPC: 1.26471 (Simulation time: 0 hr 3 min 4 sec) 
Heartbeat CPU  0 instructions:   74000003 cycles:   58511801 heartbeat IPC: 1.26391 cumulative IPC: 1.26470 (Simulation time: 0 hr 3 min 7 sec) 
Heartbeat CPU  0 instructions:   75000001 cycles:   59303074 heartbeat IPC: 1.26378 cumulative IPC: 1.26469 (Simulation time: 0 hr 3 min 9 sec) 
Heartbeat CPU  0 instructions:   76000000 cycles:   60094526 heartbeat IPC: 1.26350 cumulative IPC: 1.26467 (Simulation time: 0 hr 3 min 12 sec) 
Heartbeat CPU  0 instructions:   77000002 cycles:   60885733 heartbeat IPC: 1.26389 cumulative IPC: 1.26466 (Simulation time: 0 hr 3 min 14 sec) 
Heartbeat CPU  0 instructions:   78000001 cycles:   61677062 heartbeat IPC: 1.26370 cumulative IPC: 1.26465 (Simulation time: 0 hr 3 min 17 sec) 
Heartbeat CPU  0 instructions:   79000000 cycles:   62468296 heartbeat IPC: 1.26385 cumulative IPC: 1.26464 (Simulation time: 0 hr 3 min 19 sec) 
Heartbeat CPU  0 instructions:   80000000 cycles:   63259689 heartbeat IPC: 1.26359 cumulative IPC: 1.26463 (Simulation time: 0 hr 3 min 22 sec) 
Heartbeat CPU  0 instructions:   81000000 cycles:   64050957 heartbeat IPC: 1.26379 cumulative IPC: 1.26462 (Simulation time: 0 hr 3 min 25 sec) 
Heartbeat CPU  0 instructions:   82000002 cycles:   64842208 heartbeat IPC: 1.26382 cumulative IPC: 1.26461 (Simulation time: 0 hr 3 min 27 sec) 
Heartbeat CPU  0 instructions:   83000000 cycles:   65633455 heartbeat IPC: 1.26383 cumulative IPC: 1.26460 (Simulation time: 0 hr 3 min 30 sec) 
Heartbeat CPU  0 instructions:   84000000 cycles:   66424772 heartbeat IPC: 1.26372 cumulative IPC: 1.26459 (Simulation time: 0 hr 3 min 32 sec) 
Heartbeat CPU  0 instructions:   85000000 cycles:   67216165 heartbeat IPC: 1.26359 cumulative IPC: 1.26458 (Simulation time: 0 hr 3 min 35 sec) 
Heartbeat CPU  0 instructions:   86000002 cycles:   68007449 heartbeat IPC: 1.26377 cumulative IPC: 1.26457 (Simulation time: 0 hr 3 min 37 sec) 
Heartbeat CPU  0 instructions:   87000000 cycles:   68798762 heartbeat IPC: 1.26372 cumulative IPC: 1.26456 (Simulation time: 0 hr 3 min 40 sec) 
Heartbeat CPU  0 instructions:   88000000 cycles:   69589904 heartbeat IPC: 1.26400 cumulative IPC: 1.26455 (Simulation time: 0 hr 3 min 42 sec) 
Heartbeat CPU  0 instructions:   89000000 cycles:   70381296 heartbeat IPC: 1.26360 cumulative IPC: 1.26454 (Simulation time: 0 hr 3 min 45 sec) 
Heartbeat CPU  0 instructions:   90000003 cycles:   71172477 heartbeat IPC: 1.26394 cumulative IPC: 1.26453 (Simulation time: 0 hr 3 min 47 sec) 
Heartbeat CPU  0 instructions:   91000000 cycles:   71963631 heartbeat IPC: 1.26397 cumulative IPC: 1.26453 (Simulation time: 0 hr 3 min 50 sec) 
Heartbeat CPU  0 instructions:   92000000 cycles:   72754917 heartbeat IPC: 1.26377 cumulative IPC: 1.26452 (Simulation time: 0 hr 3 min 52 sec) 
Heartbeat CPU  0 instructions:   93000001 cycles:   73546064 heartbeat IPC: 1.26399 cumulative IPC: 1.26451 (Simulation time: 0 hr 3 min 55 sec) 
Heartbeat CPU  0 instructions:   94000001 cycles:   74337547 heartbeat IPC: 1.26345 cumulative IPC: 1.26450 (Simulation time: 0 hr 3 min 57 sec) 
Heartbeat CPU  0 instructions:   95000000 cycles:   75128772 heartbeat IPC: 1.26386 cumulative IPC: 1.26450 (Simulation time: 0 hr 4 min 0 sec) 
Heartbeat CPU  0 instructions:   96000000 cycles:   75920060 heartbeat IPC: 1.26376 cumulative IPC: 1.26449 (Simulation time: 0 hr 4 min 2 sec) 
Heartbeat CPU  0 instructions:   97000003 cycles:   76711494 heartbeat IPC: 1.26353 cumulative IPC: 1.26448 (Simulation time: 0 hr 4 min 5 sec) 
Heartbeat CPU  0 instructions:   98000003 cycles:   77502597 heartbeat IPC: 1.26406 cumulative IPC: 1.26447 (Simulation time: 0 hr 4 min 8 sec) 
Heartbeat CPU  0 instructions:   99000003 cycles:   78293906 heartbeat IPC: 1.26373 cumulative IPC: 1.26447 (Simulation time: 0 hr 4 min 10 sec) 
Heartbeat CPU  0 instructions:  100000000 cycles:   79085149 heartbeat IPC: 1.26383 cumulative IPC: 1.26446 (Simulation time: 0 hr 4 min 13 sec) 

Warmup complete CPU  0 instructions:  100000001 cycles:   79085150 (Simulation time: 0 hr 4 min 13 sec) 

Heartbeat CPU  0 instructions:  101000001 cycles:   81817558 heartbeat IPC: 0.36598 cumulative IPC: 0.36598 (Simulation time: 0 hr 4 min 16 sec) 
Heartbeat CPU  0 instructions:  102000002 cycles:   84575568 heartbeat IPC: 0.36258 cumulative IPC: 0.36427 (Simulation time: 0 hr 4 min 20 sec) 
Heartbeat CPU  0 instructions:  103000003 cycles:   87335407 heartbeat IPC: 0.36234 cumulative IPC: 0.36363 (Simulation time: 0 hr 4 min 24 sec) 
Heartbeat CPU  0 instructions:  104000000 cycles:   90084840 heartbeat IPC: 0.36371 cumulative IPC: 0.36365 (Simulation time: 0 hr 4 min 28 sec) 
Heartbeat CPU  0 instructions:  105000001 cycles:   92885066 heartbeat IPC: 0.35711 cumulative IPC: 0.36232 (Simulation time: 0 hr 4 min 31 sec) 
Heartbeat CPU  0 instructions:  106000002 cycles:   95644885 heartbeat IPC: 0.36234 cumulative IPC: 0.36232 (Simulation time: 0 hr 4 min 35 sec) 
Heartbeat CPU  0 instructions:  107000000 cycles:   98396871 heartbeat IPC: 0.36337 cumulative IPC: 0.36247 (Simulation time: 0 hr 4 min 39 sec) 
Heartbeat CPU  0 instructions:  108000000 cycles:  101164298 heartbeat IPC: 0.36135 cumulative IPC: 0.36233 (Simulation time: 0 hr 4 min 43 sec) 
Heartbeat CPU  0 instructions:  109000000 cycles:  103895549 heartbeat IPC: 0.36613 cumulative IPC: 0.36275 (Simulation time: 0 hr 4 min 46 sec) 
Heartbeat CPU  0 instructions:  110000002 cycles:  106662389 heartbeat IPC: 0.36142 cumulative IPC: 0.36262 (Simulation time: 0 hr 4 min 50 sec) 
Heartbeat CPU  0 instructions:  111000001 cycles:  109439237 heartbeat IPC: 0.36012 cumulative IPC: 0.36239 (Simulation time: 0 hr 4 min 54 sec) 
Heartbeat CPU  0 instructions:  112000000 cycles:  112203437 heartbeat IPC: 0.36177 cumulative IPC: 0.36234 (Simulation time: 0 hr 4 min 58 sec) 
Heartbeat CPU  0 instructions:  113000000 cycles:  114980037 heartbeat IPC: 0.36015 cumulative IPC: 0.36217 (Simulation time: 0 hr 5 min 1 sec) 
Heartbeat CPU  0 instructions:  114000002 cycles:  117758303 heartbeat IPC: 0.35994 cumulative IPC: 0.36201 (Simulation time: 0 hr 5 min 5 sec) 
Heartbeat CPU  0 instructions:  115000000 cycles:  120512354 heartbeat IPC: 0.36310 cumulative IPC: 0.36208 (Simulation time: 0 hr 5 min 9 sec) 
Heartbeat CPU  0 instructions:  116000000 cycles:  123289031 heartbeat IPC: 0.36014 cumulative IPC: 0.36196 (Simulation time: 0 hr 5 min 13 sec) 
Heartbeat CPU  0 instructions:  117000001 cycles:  126081456 heartbeat IPC: 0.35811 cumulative IPC: 0.36173 (Simulation time: 0 hr 5 min 17 sec) 
Heartbeat CPU  0 instructions:  118000000 cycles:  128848929 heartbeat IPC: 0.36134 cumulative IPC: 0.36171 (Simulation time: 0 hr 5 min 20 sec) 
Heartbeat CPU  0 instructions:  119000000 cycles:  131613345 heartbeat IPC: 0.36174 cumulative IPC: 0.36171 (Simulation time: 0 hr 5 min 24 sec) 
Heartbeat CPU  0 instructions:  120000000 cycles:  134367388 heartbeat IPC: 0.36310 cumulative IPC: 0.36178 (Simulation time: 0 hr 5 min 28 sec) 
Heartbeat CPU  0 instructions:  121000003 cycles:  137128032 heartbeat IPC: 0.36224 cumulative IPC: 0.36180 (Simulation time: 0 hr 5 min 32 sec) 
Heartbeat CPU  0 instructions:  122000001 cycles:  139892645 heartbeat IPC: 0.36171 cumulative IPC: 0.36180 (Simulation time: 0 hr 5 min 35 sec) 
Heartbeat CPU  0 instructions:  123000000 cycles:  142669620 heartbeat IPC: 0.36010 cumulative IPC: 0.36172 (Simulation time: 0 hr 5 min 39 sec) 
Heartbeat CPU  0 instructions:  124000000 cycles:  145450802 heartbeat IPC: 0.35956 cumulative IPC: 0.36163 (Simulation time: 0 hr 5 min 43 sec) 
Heartbeat CPU  0 instructions:  125000001 cycles:  148207634 heartbeat IPC: 0.36274 cumulative IPC: 0.36168 (Simulation time: 0 hr 5 min 47 sec) 
Heartbeat CPU  0 instructions:  126000001 cycles:  150954463 heartbeat IPC: 0.36406 cumulative IPC: 0.36177 (Simulation time: 0 hr 5 min 51 sec) 
Heartbeat CPU  0 instructions:  127000003 cycles:  153712182 heartbeat IPC: 0.36262 cumulative IPC: 0.36180 (Simulation time: 0 hr 5 min 54 sec) 
Heartbeat CPU  0 instructions:  128000000 cycles:  156477761 heartbeat IPC: 0.36159 cumulative IPC: 0.36179 (Simulation time: 0 hr 5 min 58 sec) 
Heartbeat CPU  0 instructions:  129000003 cycles:  159207933 heartbeat IPC: 0.36628 cumulative IPC: 0.36194 (Simulation time: 0 hr 6 min 2 sec) 
Heartbeat CPU  0 instructions:  130000001 cycles:  161962528 heartbeat IPC: 0.36303 cumulative IPC: 0.36198 (Simulation time: 0 hr 6 min 6 sec) 
Heartbeat CPU  0 instructions:  131000002 cycles:  164721993 heartbeat IPC: 0.36239 cumulative IPC: 0.36199 (Simulation time: 0 hr 6 min 9 sec) 
Heartbeat CPU  0 instructions:  132000000 cycles:  167478054 heartbeat IPC: 0.36284 cumulative IPC: 0.36202 (Simulation time: 0 hr 6 min 13 sec) 
Heartbeat CPU  0 instructions:  133000000 cycles:  170266255 heartbeat IPC: 0.35865 cumulative IPC: 0.36192 (Simulation time: 0 hr 6 min 17 sec) 
Heartbeat CPU  0 instructions:  134000002 cycles:  173012510 heartbeat IPC: 0.36413 cumulative IPC: 0.36198 (Simulation time: 0 hr 6 min 21 sec) 
Heartbeat CPU  0 instructions:  135000003 cycles:  175767057 heartbeat IPC: 0.36304 cumulative IPC: 0.36201 (Simulation time: 0 hr 6 min 24 sec) 
Heartbeat CPU  0 instructions:  136000000 cycles:  178550381 heartbeat IPC: 0.35928 cumulative IPC: 0.36194 (Simulation time: 0 hr 6 min 28 sec) 
Heartbeat CPU  0 instructions:  137000000 cycles:  181338672 heartbeat IPC: 0.35864 cumulative IPC: 0.36185 (Simulation time: 0 hr 6 min 32 sec) 
Heartbeat CPU  0 instructions:  138000000 cycles:  184109005 heartbeat IPC: 0.36097 cumulative IPC: 0.36182 (Simulation time: 0 hr 6 min 36 sec) 
Heartbeat CPU  0 instructions:  139000002 cycles:  186885178 heartbeat IPC: 0.36021 cumulative IPC: 0.36178 (Simulation time: 0 hr 6 min 40 sec) 
Heartbeat CPU  0 instructions:  140000000 cycles:  189618682 heartbeat IPC: 0.36583 cumulative IPC: 0.36188 (Simulation time: 0 hr 6 min 43 sec) 
Heartbeat CPU  0 instructions:  141000002 cycles:  192361227 heartbeat IPC: 0.36463 cumulative IPC: 0.36195 (Simulation time: 0 hr 6 min 47 sec) 
Heartbeat CPU  0 instructions:  142000000 cycles:  195113762 heartbeat IPC: 0.36330 cumulative IPC: 0.36198 (Simulation time: 0 hr 6 min 51 sec) 
Heartbeat CPU  0 instructions:  143000003 cycles:  197886931 heartbeat IPC: 0.36060 cumulative IPC: 0.36195 (Simulation time: 0 hr 6 min 55 sec) 
Heartbeat CPU  0 instructions:  144000000 cycles:  200670937 heartbeat IPC: 0.35919 cumulative IPC: 0.36188 (Simulation time: 0 hr 6 min 58 sec) 
Heartbeat CPU  0 instructions:  145000003 cycles:  203463494 heartbeat IPC: 0.35810 cumulative IPC: 0.36180 (Simulation time: 0 hr 7 min 2 sec) 
Heartbeat CPU  0 instructions:  146000001 cycles:  206239622 heartbeat IPC: 0.36021 cumulative IPC: 0.36176 (Simulation time: 0 hr 7 min 6 sec) 
Heartbeat CPU  0 instructions:  147000003 cycles:  208988103 heartbeat IPC: 0.36384 cumulative IPC: 0.36181 (Simulation time: 0 hr 7 min 10 sec) 
Heartbeat CPU  0 instructions:  148000000 cycles:  211769891 heartbeat IPC: 0.35948 cumulative IPC: 0.36176 (Simulation time: 0 hr 7 min 13 sec) 
Heartbeat CPU  0 instructions:  149000003 cycles:  214526099 heartbeat IPC: 0.36282 cumulative IPC: 0.36178 (Simulation time: 0 hr 7 min 17 sec) 
Heartbeat CPU  0 instructions:  150000001 cycles:  217288679 heartbeat IPC: 0.36198 cumulative IPC: 0.36179 (Simulation time: 0 hr 7 min 21 sec) 
Heartbeat CPU  0 instructions:  151000003 cycles:  220063914 heartbeat IPC: 0.36033 cumulative IPC: 0.36176 (Simulation time: 0 hr 7 min 25 sec) 
Heartbeat CPU  0 instructions:  152000000 cycles:  222791120 heartbeat IPC: 0.36667 cumulative IPC: 0.36185 (Simulation time: 0 hr 7 min 29 sec) 
Heartbeat CPU  0 instructions:  153000003 cycles:  225528677 heartbeat IPC: 0.36529 cumulative IPC: 0.36191 (Simulation time: 0 hr 7 min 32 sec) 
Heartbeat CPU  0 instructions:  154000001 cycles:  228310269 heartbeat IPC: 0.35951 cumulative IPC: 0.36187 (Simulation time: 0 hr 7 min 36 sec) 
Heartbeat CPU  0 instructions:  155000001 cycles:  231087045 heartbeat IPC: 0.36013 cumulative IPC: 0.36184 (Simulation time: 0 hr 7 min 40 sec) 
Heartbeat CPU  0 instructions:  156000000 cycles:  233862533 heartbeat IPC: 0.36030 cumulative IPC: 0.36181 (Simulation time: 0 hr 7 min 44 sec) 
Heartbeat CPU  0 instructions:  157000001 cycles:  236631632 heartbeat IPC: 0.36113 cumulative IPC: 0.36180 (Simulation time: 0 hr 7 min 47 sec) 
Heartbeat CPU  0 instructions:  158000003 cycles:  239388154 heartbeat IPC: 0.36278 cumulative IPC: 0.36181 (Simulation time: 0 hr 7 min 51 sec) 
Heartbeat CPU  0 instructions:  159000003 cycles:  242194651 heartbeat IPC: 0.35632 cumulative IPC: 0.36172 (Simulation time: 0 hr 7 min 55 sec) 
Heartbeat CPU  0 instructions:  160000000 cycles:  244914438 heartbeat IPC: 0.36767 cumulative IPC: 0.36182 (Simulation time: 0 hr 7 min 59 sec) 
Heartbeat CPU  0 instructions:  161000002 cycles:  247679887 heartbeat IPC: 0.36161 cumulative IPC: 0.36181 (Simulation time: 0 hr 8 min 3 sec) 
Heartbeat CPU  0 instructions:  162000000 cycles:  250423869 heartbeat IPC: 0.36443 cumulative IPC: 0.36186 (Simulation time: 0 hr 8 min 6 sec) 
Heartbeat CPU  0 instructions:  163000000 cycles:  253150686 heartbeat IPC: 0.36673 cumulative IPC: 0.36193 (Simulation time: 0 hr 8 min 10 sec) 
Heartbeat CPU  0 instructions:  164000000 cycles:  255923007 heartbeat IPC: 0.36071 cumulative IPC: 0.36191 (Simulation time: 0 hr 8 min 14 sec) 
Heartbeat CPU  0 instructions:  165000002 cycles:  258705372 heartbeat IPC: 0.35941 cumulative IPC: 0.36187 (Simulation time: 0 hr 8 min 18 sec) 
Heartbeat CPU  0 instructions:  166000003 cycles:  261450399 heartbeat IPC: 0.36430 cumulative IPC: 0.36191 (Simulation time: 0 hr 8 min 21 sec) 
Heartbeat CPU  0 instructions:  167000002 cycles:  264159835 heartbeat IPC: 0.36908 cumulative IPC: 0.36202 (Simulation time: 0 hr 8 min 25 sec) 
Heartbeat CPU  0 instructions:  168000000 cycles:  266940695 heartbeat IPC: 0.35960 cumulative IPC: 0.36198 (Simulation time: 0 hr 8 min 29 sec) 
Heartbeat CPU  0 instructions:  169000001 cycles:  269698541 heartbeat IPC: 0.36260 cumulative IPC: 0.36199 (Simulation time: 0 hr 8 min 33 sec) 
Heartbeat CPU  0 instructions:  170000000 cycles:  272460044 heartbeat IPC: 0.36212 cumulative IPC: 0.36199 (Simulation time: 0 hr 8 min 36 sec) 
Heartbeat CPU  0 instructions:  171000003 cycles:  275235386 heartbeat IPC: 0.36032 cumulative IPC: 0.36197 (Simulation time: 0 hr 8 min 40 sec) 
Heartbeat CPU  0 instructions:  172000000 cycles:  278008864 heartbeat IPC: 0.36056 cumulative IPC: 0.36195 (Simulation time: 0 hr 8 min 44 sec) 
Heartbeat CPU  0 instructions:  173000000 cycles:  280776940 heartbeat IPC: 0.36126 cumulative IPC: 0.36194 (Simulation time: 0 hr 8 min 48 sec) 
Heartbeat CPU  0 instructions:  174000001 cycles:  283507931 heartbeat IPC: 0.36617 cumulative IPC: 0.36199 (Simulation time: 0 hr 8 min 51 sec) 
Heartbeat CPU  0 instructions:  175000003 cycles:  286281825 heartbeat IPC: 0.36050 cumulative IPC: 0.36197 (Simulation time: 0 hr 8 min 55 sec) 
Heartbeat CPU  0 instructions:  176000000 cycles:  289064971 heartbeat IPC: 0.35930 cumulative IPC: 0.36194 (Simulation time: 0 hr 8 min 59 sec) 
Heartbeat CPU  0 instructions:  177000003 cycles:  291825663 heartbeat IPC: 0.36223 cumulative IPC: 0.36194 (Simulation time: 0 hr 9 min 3 sec) 
Heartbeat CPU  0 instructions:  178000001 cycles:  294599784 heartbeat IPC: 0.36047 cumulative IPC: 0.36192 (Simulation time: 0 hr 9 min 6 sec) 
Heartbeat CPU  0 instructions:  179000000 cycles:  297336801 heartbeat IPC: 0.36536 cumulative IPC: 0.36197 (Simulation time: 0 hr 9 min 10 sec) 
Heartbeat CPU  0 instructions:  180000000 cycles:  300092615 heartbeat IPC: 0.36287 cumulative IPC: 0.36198 (Simulation time: 0 hr 9 min 14 sec) 
Heartbeat CPU  0 instructions:  181000000 cycles:  302835299 heartbeat IPC: 0.36461 cumulative IPC: 0.36201 (Simulation time: 0 hr 9 min 18 sec) 
Heartbeat CPU  0 instructions:  182000001 cycles:  305652298 heartbeat IPC: 0.35499 cumulative IPC: 0.36192 (Simulation time: 0 hr 9 min 21 sec) 
Heartbeat CPU  0 instructions:  183000002 cycles:  308446562 heartbeat IPC: 0.35788 cumulative IPC: 0.36187 (Simulation time: 0 hr 9 min 25 sec) 
Heartbeat CPU  0 instructions:  184000000 cycles:  311179133 heartbeat IPC: 0.36595 cumulative IPC: 0.36192 (Simulation time: 0 hr 9 min 29 sec) 
Heartbeat CPU  0 instructions:  185000001 cycles:  313943876 heartbeat IPC: 0.36170 cumulative IPC: 0.36192 (Simulation time: 0 hr 9 min 33 sec) 
Heartbeat CPU  0 instructions:  186000000 cycles:  316676735 heartbeat IPC: 0.36592 cumulative IPC: 0.36197 (Simulation time: 0 hr 9 min 37 sec) 
Heartbeat CPU  0 instructions:  187000000 cycles:  319328775 heartbeat IPC: 0.37707 cumulative IPC: 0.36213 (Simulation time: 0 hr 9 min 40 sec) 
Heartbeat CPU  0 instructions:  188000000 cycles:  321311412 heartbeat IPC: 0.50438 cumulative IPC: 0.36330 (Simulation time: 0 hr 9 min 44 sec) 
Heartbeat CPU  0 instructions:  189000002 cycles:  323281920 heartbeat IPC: 0.50748 cumulative IPC: 0.36446 (Simulation time: 0 hr 9 min 47 sec) 
Heartbeat CPU  0 instructions:  190000003 cycles:  325255884 heartbeat IPC: 0.50660 cumulative IPC: 0.36560 (Simulation time: 0 hr 9 min 51 sec) 
Heartbeat CPU  0 instructions:  191000000 cycles:  327223762 heartbeat IPC: 0.50816 cumulative IPC: 0.36673 (Simulation time: 0 hr 9 min 54 sec) 
Heartbeat CPU  0 instructions:  192000000 cycles:  329213745 heartbeat IPC: 0.50252 cumulative IPC: 0.36781 (Simulation time: 0 hr 9 min 58 sec) 
Heartbeat CPU  0 instructions:  193000001 cycles:  331254593 heartbeat IPC: 0.48999 cumulative IPC: 0.36880 (Simulation time: 0 hr 10 min 1 sec) 
Heartbeat CPU  0 instructions:  194000000 cycles:  333378991 heartbeat IPC: 0.47072 cumulative IPC: 0.36965 (Simulation time: 0 hr 10 min 5 sec) 
Heartbeat CPU  0 instructions:  195000000 cycles:  335492714 heartbeat IPC: 0.47310 cumulative IPC: 0.37050 (Simulation time: 0 hr 10 min 8 sec) 
Heartbeat CPU  0 instructions:  196000000 cycles:  337648274 heartbeat IPC: 0.46392 cumulative IPC: 0.37128 (Simulation time: 0 hr 10 min 12 sec) 
Heartbeat CPU  0 instructions:  197000000 cycles:  339729376 heartbeat IPC: 0.48051 cumulative IPC: 0.37215 (Simulation time: 0 hr 10 min 15 sec) 
Heartbeat CPU  0 instructions:  198000003 cycles:  341871691 heartbeat IPC: 0.46679 cumulative IPC: 0.37293 (Simulation time: 0 hr 10 min 19 sec) 
Heartbeat CPU  0 instructions:  199000001 cycles:  344010248 heartbeat IPC: 0.46760 cumulative IPC: 0.37369 (Simulation time: 0 hr 10 min 22 sec) 
Heartbeat CPU  0 instructions:  200000000 cycles:  346156257 heartbeat IPC: 0.46598 cumulative IPC: 0.37443 (Simulation time: 0 hr 10 min 26 sec) 
Heartbeat CPU  0 instructions:  201000003 cycles:  348281656 heartbeat IPC: 0.47050 cumulative IPC: 0.37519 (Simulation time: 0 hr 10 min 29 sec) 
Heartbeat CPU  0 instructions:  202000000 cycles:  350451426 heartbeat IPC: 0.46088 cumulative IPC: 0.37588 (Simulation time: 0 hr 10 min 33 sec) 
Heartbeat CPU  0 instructions:  203000001 cycles:  352562576 heartbeat IPC: 0.47368 cumulative IPC: 0.37663 (Simulation time: 0 hr 10 min 36 sec) 
Heartbeat CPU  0 instructions:  204000000 cycles:  354710417 heartbeat IPC: 0.46558 cumulative IPC: 0.37732 (Simulation time: 0 hr 10 min 40 sec) 
Heartbeat CPU  0 instructions:  205000000 cycles:  356828768 heartbeat IPC: 0.47207 cumulative IPC: 0.37805 (Simulation time: 0 hr 10 min 44 sec) 
Heartbeat CPU  0 instructions:  206000002 cycles:  358938081 heartbeat IPC: 0.47409 cumulative IPC: 0.37877 (Simulation time: 0 hr 10 min 47 sec) 
Heartbeat CPU  0 instructions:  207000000 cycles:  361077254 heartbeat IPC: 0.46747 cumulative IPC: 0.37944 (Simulation time: 0 hr 10 min 51 sec) 
Heartbeat CPU  0 instructions:  208000000 cycles:  363220873 heartbeat IPC: 0.46650 cumulative IPC: 0.38010 (Simulation time: 0 hr 10 min 54 sec) 
Heartbeat CPU  0 instructions:  209000003 cycles:  365318975 heartbeat IPC: 0.47662 cumulative IPC: 0.38081 (Simulation time: 0 hr 10 min 58 sec) 
Heartbeat CPU  0 instructions:  210000000 cycles:  367451537 heartbeat IPC: 0.46892 cumulative IPC: 0.38146 (Simulation time: 0 hr 11 min 1 sec) 
Heartbeat CPU  0 instructions:  211000003 cycles:  369615378 heartbeat IPC: 0.46214 cumulative IPC: 0.38206 (Simulation time: 0 hr 11 min 5 sec) 
Heartbeat CPU  0 instructions:  212000000 cycles:  371735097 heartbeat IPC: 0.47176 cumulative IPC: 0.38271 (Simulation time: 0 hr 11 min 8 sec) 
Heartbeat CPU  0 instructions:  213000003 cycles:  373865331 heartbeat IPC: 0.46943 cumulative IPC: 0.38334 (Simulation time: 0 hr 11 min 12 sec) 
Heartbeat CPU  0 instructions:  214000000 cycles:  375985090 heartbeat IPC: 0.47175 cumulative IPC: 0.38397 (Simulation time: 0 hr 11 min 15 sec) 
Heartbeat CPU  0 instructions:  215000002 cycles:  378122254 heartbeat IPC: 0.46791 cumulative IPC: 0.38457 (Simulation time: 0 hr 11 min 19 sec) 
Heartbeat CPU  0 instructions:  216000000 cycles:  380266951 heartbeat IPC: 0.46627 cumulative IPC: 0.38515 (Simulation time: 0 hr 11 min 23 sec) 
Heartbeat CPU  0 instructions:  217000001 cycles:  382393840 heartbeat IPC: 0.47017 cumulative IPC: 0.38575 (Simulation time: 0 hr 11 min 26 sec) 
Heartbeat CPU  0 instructions:  218000000 cycles:  384498415 heartbeat IPC: 0.47515 cumulative IPC: 0.38636 (Simulation time: 0 hr 11 min 30 sec) 
Heartbeat CPU  0 instructions:  219000000 cycles:  386655588 heartbeat IPC: 0.46357 cumulative IPC: 0.38690 (Simulation time: 0 hr 11 min 33 sec) 
Heartbeat CPU  0 instructions:  220000000 cycles:  388791488 heartbeat IPC: 0.46819 cumulative IPC: 0.38746 (Simulation time: 0 hr 11 min 37 sec) 
Heartbeat CPU  0 instructions:  221000000 cycles:  390898213 heartbeat IPC: 0.47467 cumulative IPC: 0.38805 (Simulation time: 0 hr 11 min 40 sec) 
Heartbeat CPU  0 instructions:  222000000 cycles:  393036719 heartbeat IPC: 0.46762 cumulative IPC: 0.38859 (Simulation time: 0 hr 11 min 44 sec) 
Heartbeat CPU  0 instructions:  223000003 cycles:  395181769 heartbeat IPC: 0.46619 cumulative IPC: 0.38912 (Simulation time: 0 hr 11 min 47 sec) 
Heartbeat CPU  0 instructions:  224000000 cycles:  397290560 heartbeat IPC: 0.47420 cumulative IPC: 0.38969 (Simulation time: 0 hr 11 min 51 sec) 
Heartbeat CPU  0 instructions:  225000001 cycles:  399410181 heartbeat IPC: 0.47178 cumulative IPC: 0.39023 (Simulation time: 0 hr 11 min 54 sec) 
Heartbeat CPU  0 instructions:  226000002 cycles:  401529286 heartbeat IPC: 0.47190 cumulative IPC: 0.39077 (Simulation time: 0 hr 11 min 58 sec) 
Heartbeat CPU  0 instructions:  227000003 cycles:  403720050 heartbeat IPC: 0.45646 cumulative IPC: 0.39121 (Simulation time: 0 hr 12 min 2 sec) 
Heartbeat CPU  0 instructions:  228000000 cycles:  405849732 heartbeat IPC: 0.46955 cumulative IPC: 0.39172 (Simulation time: 0 hr 12 min 5 sec) 
Heartbeat CPU  0 instructions:  229000000 cycles:  407953370 heartbeat IPC: 0.47537 cumulative IPC: 0.39225 (Simulation time: 0 hr 12 min 9 sec) 
Heartbeat CPU  0 instructions:  230000003 cycles:  410119523 heartbeat IPC: 0.46165 cumulative IPC: 0.39271 (Simulation time: 0 hr 12 min 12 sec) 
Heartbeat CPU  0 instructions:  231000000 cycles:  412283167 heartbeat IPC: 0.46218 cumulative IPC: 0.39316 (Simulation time: 0 hr 12 min 16 sec) 
Heartbeat CPU  0 instructions:  232000000 cycles:  414412107 heartbeat IPC: 0.46972 cumulative IPC: 0.39365 (Simulation time: 0 hr 12 min 19 sec) 
Heartbeat CPU  0 instructions:  233000003 cycles:  416540624 heartbeat IPC: 0.46981 cumulative IPC: 0.39413 (Simulation time: 0 hr 12 min 23 sec) 
Heartbeat CPU  0 instructions:  234000002 cycles:  418654084 heartbeat IPC: 0.47316 cumulative IPC: 0.39462 (Simulation time: 0 hr 12 min 26 sec) 
Heartbeat CPU  0 instructions:  235000001 cycles:  420743929 heartbeat IPC: 0.47850 cumulative IPC: 0.39513 (Simulation time: 0 hr 12 min 30 sec) 
Heartbeat CPU  0 instructions:  236000000 cycles:  422889064 heartbeat IPC: 0.46617 cumulative IPC: 0.39557 (Simulation time: 0 hr 12 min 33 sec) 
Heartbeat CPU  0 instructions:  237000002 cycles:  425051671 heartbeat IPC: 0.46241 cumulative IPC: 0.39599 (Simulation time: 0 hr 12 min 37 sec) 
Heartbeat CPU  0 instructions:  238000000 cycles:  427179038 heartbeat IPC: 0.47006 cumulative IPC: 0.39644 (Simulation time: 0 hr 12 min 41 sec) 
Heartbeat CPU  0 instructions:  239000000 cycles:  429256505 heartbeat IPC: 0.48136 cumulative IPC: 0.39695 (Simulation time: 0 hr 12 min 44 sec) 
Heartbeat CPU  0 instructions:  240000000 cycles:  431415219 heartbeat IPC: 0.46324 cumulative IPC: 0.39735 (Simulation time: 0 hr 12 min 48 sec) 
Heartbeat CPU  0 instructions:  241000002 cycles:  433534790 heartbeat IPC: 0.47179 cumulative IPC: 0.39780 (Simulation time: 0 hr 12 min 51 sec) 
Heartbeat CPU  0 instructions:  242000000 cycles:  435648459 heartbeat IPC: 0.47311 cumulative IPC: 0.39825 (Simulation time: 0 hr 12 min 55 sec) 
Heartbeat CPU  0 instructions:  243000003 cycles:  437779120 heartbeat IPC: 0.46934 cumulative IPC: 0.39867 (Simulation time: 0 hr 12 min 58 sec) 
Heartbeat CPU  0 instructions:  244000000 cycles:  439917759 heartbeat IPC: 0.46759 cumulative IPC: 0.39908 (Simulation time: 0 hr 13 min 2 sec) 
Heartbeat CPU  0 instructions:  245000002 cycles:  442049368 heartbeat IPC: 0.46913 cumulative IPC: 0.39949 (Simulation time: 0 hr 13 min 5 sec) 
Heartbeat CPU  0 instructions:  246000003 cycles:  444185864 heartbeat IPC: 0.46806 cumulative IPC: 0.39989 (Simulation time: 0 hr 13 min 9 sec) 
Heartbeat CPU  0 instructions:  247000002 cycles:  446294479 heartbeat IPC: 0.47424 cumulative IPC: 0.40032 (Simulation time: 0 hr 13 min 12 sec) 
Heartbeat CPU  0 instructions:  248000000 cycles:  448445378 heartbeat IPC: 0.46492 cumulative IPC: 0.40069 (Simulation time: 0 hr 13 min 16 sec) 
Heartbeat CPU  0 instructions:  249000002 cycles:  450601412 heartbeat IPC: 0.46382 cumulative IPC: 0.40106 (Simulation time: 0 hr 13 min 19 sec) 
Heartbeat CPU  0 instructions:  250000003 cycles:  452742498 heartbeat IPC: 0.46705 cumulative IPC: 0.40144 (Simulation time: 0 hr 13 min 23 sec) 
Heartbeat CPU  0 instructions:  251000001 cycles:  454865302 heartbeat IPC: 0.47107 cumulative IPC: 0.40183 (Simulation time: 0 hr 13 min 27 sec) 
Heartbeat CPU  0 instructions:  252000000 cycles:  456989331 heartbeat IPC: 0.47080 cumulative IPC: 0.40222 (Simulation time: 0 hr 13 min 30 sec) 
Heartbeat CPU  0 instructions:  253000000 cycles:  459137932 heartbeat IPC: 0.46542 cumulative IPC: 0.40258 (Simulation time: 0 hr 13 min 34 sec) 
Heartbeat CPU  0 instructions:  254000003 cycles:  461230160 heartbeat IPC: 0.47796 cumulative IPC: 0.40299 (Simulation time: 0 hr 13 min 37 sec) 
Heartbeat CPU  0 instructions:  255000000 cycles:  463359147 heartbeat IPC: 0.46971 cumulative IPC: 0.40336 (Simulation time: 0 hr 13 min 41 sec) 
Heartbeat CPU  0 instructions:  256000000 cycles:  465503346 heartbeat IPC: 0.46637 cumulative IPC: 0.40371 (Simulation time: 0 hr 13 min 44 sec) 
Heartbeat CPU  0 instructions:  257000003 cycles:  467643539 heartbeat IPC: 0.46725 cumulative IPC: 0.40406 (Simulation time: 0 hr 13 min 48 sec) 
Heartbeat CPU  0 instructions:  258000002 cycles:  469761900 heartbeat IPC: 0.47206 cumulative IPC: 0.40443 (Simulation time: 0 hr 13 min 51 sec) 
Heartbeat CPU  0 instructions:  259000002 cycles:  471859532 heartbeat IPC: 0.47673 cumulative IPC: 0.40481 (Simulation time: 0 hr 13 min 55 sec) 
Heartbeat CPU  0 instructions:  260000000 cycles:  474008664 heartbeat IPC: 0.46530 cumulative IPC: 0.40514 (Simulation time: 0 hr 13 min 58 sec) 
Heartbeat CPU  0 instructions:  261000000 cycles:  476174011 heartbeat IPC: 0.46182 cumulative IPC: 0.40545 (Simulation time: 0 hr 14 min 2 sec) 
Heartbeat CPU  0 instructions:  262000001 cycles:  478325789 heartbeat IPC: 0.46473 cumulative IPC: 0.40577 (Simulation time: 0 hr 14 min 5 sec) 
Heartbeat CPU  0 instructions:  263000002 cycles:  480414220 heartbeat IPC: 0.47883 cumulative IPC: 0.40615 (Simulation time: 0 hr 14 min 9 sec) 
Heartbeat CPU  0 instructions:  264000000 cycles:  482598699 heartbeat IPC: 0.45777 cumulative IPC: 0.40643 (Simulation time: 0 hr 14 min 13 sec) 
Heartbeat CPU  0 instructions:  265000003 cycles:  484722359 heartbeat IPC: 0.47089 cumulative IPC: 0.40677 (Simulation time: 0 hr 14 min 16 sec) 
Heartbeat CPU  0 instructions:  266000002 cycles:  486846422 heartbeat IPC: 0.47080 cumulative IPC: 0.40710 (Simulation time: 0 hr 14 min 20 sec) 
Heartbeat CPU  0 instructions:  267000003 cycles:  488996203 heartbeat IPC: 0.46516 cumulative IPC: 0.40741 (Simulation time: 0 hr 14 min 23 sec) 
Heartbeat CPU  0 instructions:  268000000 cycles:  491138868 heartbeat IPC: 0.46671 cumulative IPC: 0.40771 (Simulation time: 0 hr 14 min 27 sec) 
Heartbeat CPU  0 instructions:  269000002 cycles:  493258808 heartbeat IPC: 0.47171 cumulative IPC: 0.40804 (Simulation time: 0 hr 14 min 30 sec) 
Heartbeat CPU  0 instructions:  270000001 cycles:  495375565 heartbeat IPC: 0.47242 cumulative IPC: 0.40837 (Simulation time: 0 hr 14 min 34 sec) 
Heartbeat CPU  0 instructions:  271000000 cycles:  497517120 heartbeat IPC: 0.46695 cumulative IPC: 0.40867 (Simulation time: 0 hr 14 min 37 sec) 
Heartbeat CPU  0 instructions:  272000000 cycles:  499653456 heartbeat IPC: 0.46809 cumulative IPC: 0.40897 (Simulation time: 0 hr 14 min 41 sec) 
Heartbeat CPU  0 instructions:  273000001 cycles:  501776602 heartbeat IPC: 0.47100 cumulative IPC: 0.40928 (Simulation time: 0 hr 14 min 44 sec) 
Heartbeat CPU  0 instructions:  274000000 cycles:  503894572 heartbeat IPC: 0.47215 cumulative IPC: 0.40960 (Simulation time: 0 hr 14 min 48 sec) 
Heartbeat CPU  0 instructions:  275000002 cycles:  506030483 heartbeat IPC: 0.46819 cumulative IPC: 0.40989 (Simulation time: 0 hr 14 min 52 sec) 
Heartbeat CPU  0 instructions:  276000000 cycles:  508173605 heartbeat IPC: 0.46661 cumulative IPC: 0.41017 (Simulation time: 0 hr 14 min 55 sec) 
Heartbeat CPU  0 instructions:  277000001 cycles:  510295415 heartbeat IPC: 0.47130 cumulative IPC: 0.41047 (Simulation time: 0 hr 14 min 59 sec) 
Heartbeat CPU  0 instructions:  278000003 cycles:  512433231 heartbeat IPC: 0.46777 cumulative IPC: 0.41076 (Simulation time: 0 hr 15 min 2 sec) 
Heartbeat CPU  0 instructions:  279000002 cycles:  514564199 heartbeat IPC: 0.46927 cumulative IPC: 0.41104 (Simulation time: 0 hr 15 min 6 sec) 
Heartbeat CPU  0 instructions:  280000000 cycles:  516669294 heartbeat IPC: 0.47504 cumulative IPC: 0.41135 (Simulation time: 0 hr 15 min 9 sec) 
Heartbeat CPU  0 instructions:  281000001 cycles:  518785396 heartbeat IPC: 0.47257 cumulative IPC: 0.41164 (Simulation time: 0 hr 15 min 13 sec) 
Heartbeat CPU  0 instructions:  282000002 cycles:  520920645 heartbeat IPC: 0.46833 cumulative IPC: 0.41192 (Simulation time: 0 hr 15 min 16 sec) 
Heartbeat CPU  0 instructions:  283000001 cycles:  523066623 heartbeat IPC: 0.46599 cumulative IPC: 0.41218 (Simulation time: 0 hr 15 min 20 sec) 
Heartbeat CPU  0 instructions:  284000000 cycles:  525195132 heartbeat IPC: 0.46981 cumulative IPC: 0.41245 (Simulation time: 0 hr 15 min 23 sec) 
Heartbeat CPU  0 instructions:  285000001 cycles:  527372031 heartbeat IPC: 0.45937 cumulative IPC: 0.41268 (Simulation time: 0 hr 15 min 27 sec) 
Heartbeat CPU  0 instructions:  286000002 cycles:  529471528 heartbeat IPC: 0.47631 cumulative IPC: 0.41298 (Simulation time: 0 hr 15 min 30 sec) 
Heartbeat CPU  0 instructions:  287000000 cycles:  531594736 heartbeat IPC: 0.47098 cumulative IPC: 0.41325 (Simulation time: 0 hr 15 min 34 sec) 
Heartbeat CPU  0 instructions:  288000000 cycles:  533738259 heartbeat IPC: 0.46652 cumulative IPC: 0.41350 (Simulation time: 0 hr 15 min 38 sec) 
Heartbeat CPU  0 instructions:  289000003 cycles:  535900942 heartbeat IPC: 0.46239 cumulative IPC: 0.41373 (Simulation time: 0 hr 15 min 41 sec) 
Heartbeat CPU  0 instructions:  290000000 cycles:  538020876 heartbeat IPC: 0.47171 cumulative IPC: 0.41400 (Simulation time: 0 hr 15 min 45 sec) 
Heartbeat CPU  0 instructions:  291000000 cycles:  540143839 heartbeat IPC: 0.47104 cumulative IPC: 0.41426 (Simulation time: 0 hr 15 min 48 sec) 
Heartbeat CPU  0 instructions:  292000000 cycles:  542283806 heartbeat IPC: 0.46730 cumulative IPC: 0.41451 (Simulation time: 0 hr 15 min 52 sec) 
Heartbeat CPU  0 instructions:  293000003 cycles:  544403005 heartbeat IPC: 0.47188 cumulative IPC: 0.41477 (Simulation time: 0 hr 15 min 55 sec) 
Heartbeat CPU  0 instructions:  294000000 cycles:  546522551 heartbeat IPC: 0.47180 cumulative IPC: 0.41503 (Simulation time: 0 hr 15 min 59 sec) 
Heartbeat CPU  0 instructions:  295000001 cycles:  548614985 heartbeat IPC: 0.47791 cumulative IPC: 0.41531 (Simulation time: 0 hr 16 min 2 sec) 
Heartbeat CPU  0 instructions:  296000000 cycles:  550719708 heartbeat IPC: 0.47512 cumulative IPC: 0.41558 (Simulation time: 0 hr 16 min 6 sec) 
Heartbeat CPU  0 instructions:  297000003 cycles:  552847464 heartbeat IPC: 0.46998 cumulative IPC: 0.41582 (Simulation time: 0 hr 16 min 9 sec) 
Heartbeat CPU  0 instructions:  298000000 cycles:  554992017 heartbeat IPC: 0.46630 cumulative IPC: 0.41605 (Simulation time: 0 hr 16 min 13 sec) 
Heartbeat CPU  0 instructions:  299000001 cycles:  557127482 heartbeat IPC: 0.46828 cumulative IPC: 0.41628 (Simulation time: 0 hr 16 min 16 sec) 
Heartbeat CPU  0 instructions:  300000000 cycles:  559283142 heartbeat IPC: 0.46389 cumulative IPC: 0.41649 (Simulation time: 0 hr 16 min 20 sec) 
Heartbeat CPU  0 instructions:  301000002 cycles:  561385970 heartbeat IPC: 0.47555 cumulative IPC: 0.41675 (Simulation time: 0 hr 16 min 24 sec) 
Heartbeat CPU  0 instructions:  302000001 cycles:  563503631 heartbeat IPC: 0.47222 cumulative IPC: 0.41699 (Simulation time: 0 hr 16 min 27 sec) 
Heartbeat CPU  0 instructions:  303000002 cycles:  565660050 heartbeat IPC: 0.46373 cumulative IPC: 0.41720 (Simulation time: 0 hr 16 min 31 sec) 
Heartbeat CPU  0 instructions:  304000000 cycles:  567790002 heartbeat IPC: 0.46949 cumulative IPC: 0.41743 (Simulation time: 0 hr 16 min 34 sec) 
Heartbeat CPU  0 instructions:  305000001 cycles:  569912128 heartbeat IPC: 0.47123 cumulative IPC: 0.41766 (Simulation time: 0 hr 16 min 38 sec) 
Heartbeat CPU  0 instructions:  306000000 cycles:  572055787 heartbeat IPC: 0.46649 cumulative IPC: 0.41787 (Simulation time: 0 hr 16 min 41 sec) 
Heartbeat CPU  0 instructions:  307000000 cycles:  574257750 heartbeat IPC: 0.45414 cumulative IPC: 0.41804 (Simulation time: 0 hr 16 min 45 sec) 
Heartbeat CPU  0 instructions:  308000000 cycles:  577085780 heartbeat IPC: 0.35360 cumulative IPC: 0.41767 (Simulation time: 0 hr 16 min 49 sec) 
Heartbeat CPU  0 instructions:  309000002 cycles:  579877807 heartbeat IPC: 0.35816 cumulative IPC: 0.41734 (Simulation time: 0 hr 16 min 52 sec) 
Heartbeat CPU  0 instructions:  310000000 cycles:  582642252 heartbeat IPC: 0.36174 cumulative IPC: 0.41703 (Simulation time: 0 hr 16 min 56 sec) 
Heartbeat CPU  0 instructions:  311000002 cycles:  585109607 heartbeat IPC: 0.40529 cumulative IPC: 0.41698 (Simulation time: 0 hr 16 min 59 sec) 
Heartbeat CPU  0 instructions:  312000000 cycles:  587092167 heartbeat IPC: 0.50440 cumulative IPC: 0.41732 (Simulation time: 0 hr 17 min 3 sec) 
Heartbeat CPU  0 instructions:  313000003 cycles:  589074776 heartbeat IPC: 0.50439 cumulative IPC: 0.41766 (Simulation time: 0 hr 17 min 6 sec) 
Heartbeat CPU  0 instructions:  314000000 cycles:  591018604 heartbeat IPC: 0.51445 cumulative IPC: 0.41802 (Simulation time: 0 hr 17 min 10 sec) 
Heartbeat CPU  0 instructions:  315000003 cycles:  592906796 heartbeat IPC: 0.52961 cumulative IPC: 0.41843 (Simulation time: 0 hr 17 min 13 sec) 
Heartbeat CPU  0 instructions:  316000000 cycles:  594860903 heartbeat IPC: 0.51174 cumulative IPC: 0.41879 (Simulation time: 0 hr 17 min 17 sec) 
Heartbeat CPU  0 instructions:  317000001 cycles:  596898442 heartbeat IPC: 0.49079 cumulative IPC: 0.41907 (Simulation time: 0 hr 17 min 20 sec) 
Heartbeat CPU  0 instructions:  318000000 cycles:  599054387 heartbeat IPC: 0.46383 cumulative IPC: 0.41926 (Simulation time: 0 hr 17 min 24 sec) 
Heartbeat CPU  0 instructions:  319000000 cycles:  601118306 heartbeat IPC: 0.48452 cumulative IPC: 0.41951 (Simulation time: 0 hr 17 min 27 sec) 
Heartbeat CPU  0 instructions:  320000000 cycles:  603242514 heartbeat IPC: 0.47076 cumulative IPC: 0.41972 (Simulation time: 0 hr 17 min 31 sec) 
Heartbeat CPU  0 instructions:  321000000 cycles:  605374552 heartbeat IPC: 0.46903 cumulative IPC: 0.41992 (Simulation time: 0 hr 17 min 34 sec) 
Heartbeat CPU  0 instructions:  322000001 cycles:  607472244 heartbeat IPC: 0.47671 cumulative IPC: 0.42015 (Simulation time: 0 hr 17 min 38 sec) 
Heartbeat CPU  0 instructions:  323000003 cycles:  609605294 heartbeat IPC: 0.46881 cumulative IPC: 0.42034 (Simulation time: 0 hr 17 min 41 sec) 
Heartbeat CPU  0 instructions:  324000000 cycles:  611718197 heartbeat IPC: 0.47328 cumulative IPC: 0.42055 (Simulation time: 0 hr 17 min 45 sec) 
Heartbeat CPU  0 instructions:  325000003 cycles:  613842761 heartbeat IPC: 0.47069 cumulative IPC: 0.42075 (Simulation time: 0 hr 17 min 48 sec) 
Heartbeat CPU  0 instructions:  326000000 cycles:  615949532 heartbeat IPC: 0.47466 cumulative IPC: 0.42096 (Simulation time: 0 hr 17 min 52 sec) 
Heartbeat CPU  0 instructions:  327000001 cycles:  618072312 heartbeat IPC: 0.47108 cumulative IPC: 0.42116 (Simulation time: 0 hr 17 min 55 sec) 
Heartbeat CPU  0 instructions:  328000000 cycles:  620191008 heartbeat IPC: 0.47199 cumulative IPC: 0.42136 (Simulation time: 0 hr 17 min 59 sec) 
Heartbeat CPU  0 instructions:  329000002 cycles:  622337340 heartbeat IPC: 0.46591 cumulative IPC: 0.42154 (Simulation time: 0 hr 18 min 3 sec) 
Heartbeat CPU  0 instructions:  330000003 cycles:  624460599 heartbeat IPC: 0.47097 cumulative IPC: 0.42173 (Simulation time: 0 hr 18 min 6 sec) 
Heartbeat CPU  0 instructions:  331000003 cycles:  626595654 heartbeat IPC: 0.46837 cumulative IPC: 0.42191 (Simulation time: 0 hr 18 min 10 sec) 
Heartbeat CPU  0 instructions:  332000000 cycles:  628706737 heartbeat IPC: 0.47369 cumulative IPC: 0.42211 (Simulation time: 0 hr 18 min 13 sec) 
Heartbeat CPU  0 instructions:  333000003 cycles:  630867980 heartbeat IPC: 0.46270 cumulative IPC: 0.42227 (Simulation time: 0 hr 18 min 17 sec) 
Heartbeat CPU  0 instructions:  334000000 cycles:  633008036 heartbeat IPC: 0.46728 cumulative IPC: 0.42244 (Simulation time: 0 hr 18 min 20 sec) 
Heartbeat CPU  0 instructions:  335000002 cycles:  635124394 heartbeat IPC: 0.47251 cumulative IPC: 0.42263 (Simulation time: 0 hr 18 min 24 sec) 
Heartbeat CPU  0 instructions:  336000000 cycles:  637220680 heartbeat IPC: 0.47703 cumulative IPC: 0.42284 (Simulation time: 0 hr 18 min 27 sec) 
Heartbeat CPU  0 instructions:  337000000 cycles:  639320922 heartbeat IPC: 0.47614 cumulative IPC: 0.42304 (Simulation time: 0 hr 18 min 31 sec) 
Heartbeat CPU  0 instructions:  338000002 cycles:  641484350 heartbeat IPC: 0.46223 cumulative IPC: 0.42319 (Simulation time: 0 hr 18 min 34 sec) 
Heartbeat CPU  0 instructions:  339000001 cycles:  643611035 heartbeat IPC: 0.47021 cumulative IPC: 0.42336 (Simulation time: 0 hr 18 min 38 sec) 
Heartbeat CPU  0 instructions:  340000000 cycles:  645693230 heartbeat IPC: 0.48026 cumulative IPC: 0.42357 (Simulation time: 0 hr 18 min 42 sec) 
Heartbeat CPU  0 instructions:  341000002 cycles:  647870910 heartbeat IPC: 0.45921 cumulative IPC: 0.42371 (Simulation time: 0 hr 18 min 45 sec) 
Heartbeat CPU  0 instructions:  342000003 cycles:  649975519 heartbeat IPC: 0.47515 cumulative IPC: 0.42390 (Simulation time: 0 hr 18 min 49 sec) 
Heartbeat CPU  0 instructions:  343000000 cycles:  652113790 heartbeat IPC: 0.46767 cumulative IPC: 0.42406 (Simulation time: 0 hr 18 min 52 sec) 
Heartbeat CPU  0 instructions:  344000000 cycles:  654257719 heartbeat IPC: 0.46643 cumulative IPC: 0.42422 (Simulation time: 0 hr 18 min 56 sec) 
Heartbeat CPU  0 instructions:  345000003 cycles:  656373845 heartbeat IPC: 0.47256 cumulative IPC: 0.42440 (Simulation time: 0 hr 18 min 59 sec) 
Heartbeat CPU  0 instructions:  346000000 cycles:  658489824 heartbeat IPC: 0.47259 cumulative IPC: 0.42457 (Simulation time: 0 hr 19 min 3 sec) 
Heartbeat CPU  0 instructions:  347000003 cycles:  660626419 heartbeat IPC: 0.46804 cumulative IPC: 0.42473 (Simulation time: 0 hr 19 min 6 sec) 
Heartbeat CPU  0 instructions:  348000000 cycles:  662737883 heartbeat IPC: 0.47360 cumulative IPC: 0.42491 (Simulation time: 0 hr 19 min 10 sec) 
Heartbeat CPU  0 instructions:  349000000 cycles:  664846957 heartbeat IPC: 0.47414 cumulative IPC: 0.42509 (Simulation time: 0 hr 19 min 13 sec) 
Heartbeat CPU  0 instructions:  350000003 cycles:  666956559 heartbeat IPC: 0.47402 cumulative IPC: 0.42526 (Simulation time: 0 hr 19 min 17 sec) 
Heartbeat CPU  0 instructions:  351000001 cycles:  669087893 heartbeat IPC: 0.46919 cumulative IPC: 0.42542 (Simulation time: 0 hr 19 min 20 sec) 
Heartbeat CPU  0 instructions:  352000000 cycles:  671217892 heartbeat IPC: 0.46948 cumulative IPC: 0.42558 (Simulation time: 0 hr 19 min 24 sec) 
Heartbeat CPU  0 instructions:  353000003 cycles:  673357646 heartbeat IPC: 0.46734 cumulative IPC: 0.42573 (Simulation time: 0 hr 19 min 28 sec) 
Heartbeat CPU  0 instructions:  354000000 cycles:  675469756 heartbeat IPC: 0.47346 cumulative IPC: 0.42590 (Simulation time: 0 hr 19 min 31 sec) 
Heartbeat CPU  0 instructions:  355000000 cycles:  677582892 heartbeat IPC: 0.47323 cumulative IPC: 0.42607 (Simulation time: 0 hr 19 min 35 sec) 
Heartbeat CPU  0 instructions:  356000000 cycles:  679702770 heartbeat IPC: 0.47173 cumulative IPC: 0.42623 (Simulation time: 0 hr 19 min 38 sec) 
Heartbeat CPU  0 instructions:  357000002 cycles:  681824507 heartbeat IPC: 0.47131 cumulative IPC: 0.42639 (Simulation time: 0 hr 19 min 42 sec) 
Heartbeat CPU  0 instructions:  358000003 cycles:  683946213 heartbeat IPC: 0.47132 cumulative IPC: 0.42654 (Simulation time: 0 hr 19 min 45 sec) 
Heartbeat CPU  0 instructions:  359000000 cycles:  686094794 heartbeat IPC: 0.46542 cumulative IPC: 0.42668 (Simulation time: 0 hr 19 min 49 sec) 
Heartbeat CPU  0 instructions:  360000000 cycles:  688205243 heartbeat IPC: 0.47383 cumulative IPC: 0.42685 (Simulation time: 0 hr 19 min 52 sec) 
Heartbeat CPU  0 instructions:  361000002 cycles:  690323314 heartbeat IPC: 0.47213 cumulative IPC: 0.42700 (Simulation time: 0 hr 19 min 56 sec) 
Heartbeat CPU  0 instructions:  362000003 cycles:  692468886 heartbeat IPC: 0.46608 cumulative IPC: 0.42714 (Simulation time: 0 hr 20 min 0 sec) 
Heartbeat CPU  0 instructions:  363000003 cycles:  694597910 heartbeat IPC: 0.46970 cumulative IPC: 0.42729 (Simulation time: 0 hr 20 min 3 sec) 
Heartbeat CPU  0 instructions:  364000000 cycles:  696731167 heartbeat IPC: 0.46877 cumulative IPC: 0.42743 (Simulation time: 0 hr 20 min 7 sec) 
Heartbeat CPU  0 instructions:  365000003 cycles:  698868084 heartbeat IPC: 0.46797 cumulative IPC: 0.42757 (Simulation time: 0 hr 20 min 10 sec) 
Heartbeat CPU  0 instructions:  366000000 cycles:  700952324 heartbeat IPC: 0.47979 cumulative IPC: 0.42774 (Simulation time: 0 hr 20 min 14 sec) 
Heartbeat CPU  0 instructions:  367000001 cycles:  703059350 heartbeat IPC: 0.47460 cumulative IPC: 0.42790 (Simulation time: 0 hr 20 min 17 sec) 
Heartbeat CPU  0 instructions:  368000000 cycles:  705194463 heartbeat IPC: 0.46836 cumulative IPC: 0.42804 (Simulation time: 0 hr 20 min 21 sec) 
Heartbeat CPU  0 instructions:  369000003 cycles:  707345262 heartbeat IPC: 0.46494 cumulative IPC: 0.42817 (Simulation time: 0 hr 20 min 24 sec) 
Heartbeat CPU  0 instructions:  370000000 cycles:  709439429 heartbeat IPC: 0.47752 cumulative IPC: 0.42833 (Simulation time: 0 hr 20 min 28 sec) 
Heartbeat CPU  0 instructions:  371000001 cycles:  711561180 heartbeat IPC: 0.47131 cumulative IPC: 0.42847 (Simulation time: 0 hr 20 min 31 sec) 
Heartbeat CPU  0 instructions:  372000000 cycles:  713703407 heartbeat IPC: 0.46680 cumulative IPC: 0.42860 (Simulation time: 0 hr 20 min 35 sec) 
Heartbeat CPU  0 instructions:  373000000 cycles:  715799998 heartbeat IPC: 0.47696 cumulative IPC: 0.42876 (Simulation time: 0 hr 20 min 39 sec) 
Heartbeat CPU  0 instructions:  374000003 cycles:  717921933 heartbeat IPC: 0.47127 cumulative IPC: 0.42890 (Simulation time: 0 hr 20 min 42 sec) 
Heartbeat CPU  0 instructions:  375000002 cycles:  720028192 heartbeat IPC: 0.47477 cumulative IPC: 0.42906 (Simulation time: 0 hr 20 min 46 sec) 
Heartbeat CPU  0 instructions:  376000000 cycles:  722178181 heartbeat IPC: 0.46512 cumulative IPC: 0.42918 (Simulation time: 0 hr 20 min 49 sec) 
Heartbeat CPU  0 instructions:  377000003 cycles:  724282522 heartbeat IPC: 0.47521 cumulative IPC: 0.42933 (Simulation time: 0 hr 20 min 53 sec) 
Heartbeat CPU  0 instructions:  378000000 cycles:  726423059 heartbeat IPC: 0.46717 cumulative IPC: 0.42945 (Simulation time: 0 hr 20 min 56 sec) 
Heartbeat CPU  0 instructions:  379000001 cycles:  728562054 heartbeat IPC: 0.46751 cumulative IPC: 0.42958 (Simulation time: 0 hr 21 min 0 sec) 
Heartbeat CPU  0 instructions:  380000000 cycles:  730720190 heartbeat IPC: 0.46336 cumulative IPC: 0.42969 (Simulation time: 0 hr 21 min 3 sec) 
Heartbeat CPU  0 instructions:  381000002 cycles:  732865886 heartbeat IPC: 0.46605 cumulative IPC: 0.42981 (Simulation time: 0 hr 21 min 7 sec) 
Heartbeat CPU  0 instructions:  382000003 cycles:  734961529 heartbeat IPC: 0.47718 cumulative IPC: 0.42996 (Simulation time: 0 hr 21 min 11 sec) 
Heartbeat CPU  0 instructions:  383000000 cycles:  737091951 heartbeat IPC: 0.46939 cumulative IPC: 0.43009 (Simulation time: 0 hr 21 min 14 sec) 
Heartbeat CPU  0 instructions:  384000000 cycles:  739197049 heartbeat IPC: 0.47504 cumulative IPC: 0.43023 (Simulation time: 0 hr 21 min 18 sec) 
Heartbeat CPU  0 instructions:  385000003 cycles:  741305359 heartbeat IPC: 0.47431 cumulative IPC: 0.43037 (Simulation time: 0 hr 21 min 21 sec) 
Heartbeat CPU  0 instructions:  386000000 cycles:  743439873 heartbeat IPC: 0.46849 cumulative IPC: 0.43049 (Simulation time: 0 hr 21 min 25 sec) 
Heartbeat CPU  0 instructions:  387000002 cycles:  745608978 heartbeat IPC: 0.46102 cumulative IPC: 0.43059 (Simulation time: 0 hr 21 min 28 sec) 
Heartbeat CPU  0 instructions:  388000000 cycles:  747764230 heartbeat IPC: 0.46398 cumulative IPC: 0.43070 (Simulation time: 0 hr 21 min 32 sec) 
Heartbeat CPU  0 instructions:  389000000 cycles:  749867879 heartbeat IPC: 0.47536 cumulative IPC: 0.43084 (Simulation time: 0 hr 21 min 35 sec) 
Heartbeat CPU  0 instructions:  390000000 cycles:  751971212 heartbeat IPC: 0.47544 cumulative IPC: 0.43098 (Simulation time: 0 hr 21 min 39 sec) 
Heartbeat CPU  0 instructions:  391000003 cycles:  754076903 heartbeat IPC: 0.47490 cumulative IPC: 0.43112 (Simulation time: 0 hr 21 min 42 sec) 
Heartbeat CPU  0 instructions:  392000000 cycles:  756189025 heartbeat IPC: 0.47346 cumulative IPC: 0.43125 (Simulation time: 0 hr 21 min 46 sec) 
Heartbeat CPU  0 instructions:  393000000 cycles:  758331614 heartbeat IPC: 0.46673 cumulative IPC: 0.43136 (Simulation time: 0 hr 21 min 49 sec) 
Heartbeat CPU  0 instructions:  394000000 cycles:  760459956 heartbeat IPC: 0.46985 cumulative IPC: 0.43148 (Simulation time: 0 hr 21 min 53 sec) 
Heartbeat CPU  0 instructions:  395000000 cycles:  762592740 heartbeat IPC: 0.46887 cumulative IPC: 0.43160 (Simulation time: 0 hr 21 min 57 sec) 
Heartbeat CPU  0 instructions:  396000000 cycles:  764713074 heartbeat IPC: 0.47162 cumulative IPC: 0.43172 (Simulation time: 0 hr 22 min 0 sec) 
Heartbeat CPU  0 instructions:  397000000 cycles:  766843569 heartbeat IPC: 0.46937 cumulative IPC: 0.43184 (Simulation time: 0 hr 22 min 4 sec) 
Heartbeat CPU  0 instructions:  398000001 cycles:  768956080 heartbeat IPC: 0.47337 cumulative IPC: 0.43196 (Simulation time: 0 hr 22 min 7 sec) 
Heartbeat CPU  0 instructions:  399000002 cycles:  771083310 heartbeat IPC: 0.47010 cumulative IPC: 0.43208 (Simulation time: 0 hr 22 min 11 sec) 
Heartbeat CPU  0 instructions:  400000000 cycles:  773226826 heartbeat IPC: 0.46652 cumulative IPC: 0.43219 (Simulation time: 0 hr 22 min 14 sec) 
Heartbeat CPU  0 instructions:  401000002 cycles:  775391799 heartbeat IPC: 0.46190 cumulative IPC: 0.43228 (Simulation time: 0 hr 22 min 18 sec) 
Heartbeat CPU  0 instructions:  402000003 cycles:  777518737 heartbeat IPC: 0.47016 cumulative IPC: 0.43240 (Simulation time: 0 hr 22 min 21 sec) 
Heartbeat CPU  0 instructions:  403000000 cycles:  779611730 heartbeat IPC: 0.47778 cumulative IPC: 0.43253 (Simulation time: 0 hr 22 min 25 sec) 
Heartbeat CPU  0 instructions:  404000000 cycles:  781715586 heartbeat IPC: 0.47532 cumulative IPC: 0.43266 (Simulation time: 0 hr 22 min 28 sec) 
Heartbeat CPU  0 instructions:  405000003 cycles:  783849716 heartbeat IPC: 0.46858 cumulative IPC: 0.43277 (Simulation time: 0 hr 22 min 32 sec) 
Heartbeat CPU  0 instructions:  406000000 cycles:  785980014 heartbeat IPC: 0.46942 cumulative IPC: 0.43288 (Simulation time: 0 hr 22 min 36 sec) 
Heartbeat CPU  0 instructions:  407000001 cycles:  788134013 heartbeat IPC: 0.46425 cumulative IPC: 0.43297 (Simulation time: 0 hr 22 min 39 sec) 
Heartbeat CPU  0 instructions:  408000000 cycles:  790202390 heartbeat IPC: 0.48347 cumulative IPC: 0.43312 (Simulation time: 0 hr 22 min 43 sec) 
Heartbeat CPU  0 instructions:  409000002 cycles:  792325491 heartbeat IPC: 0.47101 cumulative IPC: 0.43323 (Simulation time: 0 hr 22 min 46 sec) 
Heartbeat CPU  0 instructions:  410000000 cycles:  794415670 heartbeat IPC: 0.47843 cumulative IPC: 0.43337 (Simulation time: 0 hr 22 min 50 sec) 
Heartbeat CPU  0 instructions:  411000001 cycles:  796546443 heartbeat IPC: 0.46931 cumulative IPC: 0.43347 (Simulation time: 0 hr 22 min 53 sec) 
Heartbeat CPU  0 instructions:  412000000 cycles:  798701233 heartbeat IPC: 0.46408 cumulative IPC: 0.43356 (Simulation time: 0 hr 22 min 57 sec) 
Heartbeat CPU  0 instructions:  413000002 cycles:  800835501 heartbeat IPC: 0.46855 cumulative IPC: 0.43367 (Simulation time: 0 hr 23 min 0 sec) 
Heartbeat CPU  0 instructions:  414000001 cycles:  802958743 heartbeat IPC: 0.47098 cumulative IPC: 0.43378 (Simulation time: 0 hr 23 min 4 sec) 
Heartbeat CPU  0 instructions:  415000002 cycles:  805078777 heartbeat IPC: 0.47169 cumulative IPC: 0.43389 (Simulation time: 0 hr 23 min 7 sec) 
Heartbeat CPU  0 instructions:  416000000 cycles:  807227040 heartbeat IPC: 0.46549 cumulative IPC: 0.43398 (Simulation time: 0 hr 23 min 11 sec) 
Heartbeat CPU  0 instructions:  417000003 cycles:  809346951 heartbeat IPC: 0.47172 cumulative IPC: 0.43409 (Simulation time: 0 hr 23 min 15 sec) 
Heartbeat CPU  0 instructions:  418000000 cycles:  811447462 heartbeat IPC: 0.47607 cumulative IPC: 0.43421 (Simulation time: 0 hr 23 min 18 sec) 
Heartbeat CPU  0 instructions:  419000001 cycles:  813553837 heartbeat IPC: 0.47475 cumulative IPC: 0.43433 (Simulation time: 0 hr 23 min 22 sec) 
Heartbeat CPU  0 instructions:  420000000 cycles:  815673337 heartbeat IPC: 0.47181 cumulative IPC: 0.43444 (Simulation time: 0 hr 23 min 25 sec) 
Heartbeat CPU  0 instructions:  421000000 cycles:  817841018 heartbeat IPC: 0.46132 cumulative IPC: 0.43451 (Simulation time: 0 hr 23 min 29 sec) 
Heartbeat CPU  0 instructions:  422000001 cycles:  819964339 heartbeat IPC: 0.47096 cumulative IPC: 0.43462 (Simulation time: 0 hr 23 min 32 sec) 
Heartbeat CPU  0 instructions:  423000001 cycles:  822097887 heartbeat IPC: 0.46870 cumulative IPC: 0.43472 (Simulation time: 0 hr 23 min 36 sec) 
Heartbeat CPU  0 instructions:  424000000 cycles:  824227786 heartbeat IPC: 0.46951 cumulative IPC: 0.43482 (Simulation time: 0 hr 23 min 39 sec) 
Heartbeat CPU  0 instructions:  425000001 cycles:  826349871 heartbeat IPC: 0.47124 cumulative IPC: 0.43492 (Simulation time: 0 hr 23 min 43 sec) 
Heartbeat CPU  0 instructions:  426000002 cycles:  828476649 heartbeat IPC: 0.47020 cumulative IPC: 0.43502 (Simulation time: 0 hr 23 min 46 sec) 
Heartbeat CPU  0 instructions:  427000000 cycles:  830593608 heartbeat IPC: 0.47237 cumulative IPC: 0.43512 (Simulation time: 0 hr 23 min 50 sec) 
Heartbeat CPU  0 instructions:  428000000 cycles:  832723052 heartbeat IPC: 0.46961 cumulative IPC: 0.43522 (Simulation time: 0 hr 23 min 54 sec) 
Heartbeat CPU  0 instructions:  429000000 cycles:  834819945 heartbeat IPC: 0.47690 cumulative IPC: 0.43534 (Simulation time: 0 hr 23 min 57 sec) 
Heartbeat CPU  0 instructions:  430000000 cycles:  836953209 heartbeat IPC: 0.46877 cumulative IPC: 0.43543 (Simulation time: 0 hr 24 min 1 sec) 
Heartbeat CPU  0 instructions:  431000002 cycles:  839274521 heartbeat IPC: 0.43079 cumulative IPC: 0.43542 (Simulation time: 0 hr 24 min 4 sec) 
Heartbeat CPU  0 instructions:  432000000 cycles:  841806825 heartbeat IPC: 0.39490 cumulative IPC: 0.43528 (Simulation time: 0 hr 24 min 8 sec) 
Heartbeat CPU  0 instructions:  433000001 cycles:  844335090 heartbeat IPC: 0.39553 cumulative IPC: 0.43515 (Simulation time: 0 hr 24 min 12 sec) 
Heartbeat CPU  0 instructions:  434000000 cycles:  846879026 heartbeat IPC: 0.39309 cumulative IPC: 0.43501 (Simulation time: 0 hr 24 min 15 sec) 
Heartbeat CPU  0 instructions:  435000003 cycles:  849421729 heartbeat IPC: 0.39328 cumulative IPC: 0.43487 (Simulation time: 0 hr 24 min 19 sec) 
Heartbeat CPU  0 instructions:  436000000 cycles:  851857607 heartbeat IPC: 0.41053 cumulative IPC: 0.43480 (Simulation time: 0 hr 24 min 23 sec) 
Heartbeat CPU  0 instructions:  437000002 cycles:  854196952 heartbeat IPC: 0.42747 cumulative IPC: 0.43478 (Simulation time: 0 hr 24 min 27 sec) 
Heartbeat CPU  0 instructions:  438000001 cycles:  856623505 heartbeat IPC: 0.41211 cumulative IPC: 0.43471 (Simulation time: 0 hr 24 min 30 sec) 
Heartbeat CPU  0 instructions:  439000000 cycles:  858951117 heartbeat IPC: 0.42962 cumulative IPC: 0.43469 (Simulation time: 0 hr 24 min 34 sec) 
Heartbeat CPU  0 instructions:  440000000 cycles:  861391228 heartbeat IPC: 0.40982 cumulative IPC: 0.43461 (Simulation time: 0 hr 24 min 38 sec) 
Heartbeat CPU  0 instructions:  441000001 cycles:  863761673 heartbeat IPC: 0.42186 cumulative IPC: 0.43457 (Simulation time: 0 hr 24 min 41 sec) 
Heartbeat CPU  0 instructions:  442000000 cycles:  866149410 heartbeat IPC: 0.41881 cumulative IPC: 0.43453 (Simulation time: 0 hr 24 min 45 sec) 
Heartbeat CPU  0 instructions:  443000000 cycles:  868496405 heartbeat IPC: 0.42608 cumulative IPC: 0.43450 (Simulation time: 0 hr 24 min 49 sec) 
Heartbeat CPU  0 instructions:  444000000 cycles:  870863842 heartbeat IPC: 0.42240 cumulative IPC: 0.43446 (Simulation time: 0 hr 24 min 52 sec) 
Heartbeat CPU  0 instructions:  445000002 cycles:  873291544 heartbeat IPC: 0.41191 cumulative IPC: 0.43440 (Simulation time: 0 hr 24 min 56 sec) 
Heartbeat CPU  0 instructions:  446000001 cycles:  875660194 heartbeat IPC: 0.42218 cumulative IPC: 0.43436 (Simulation time: 0 hr 25 min 0 sec) 
Heartbeat CPU  0 instructions:  447000003 cycles:  878037041 heartbeat IPC: 0.42073 cumulative IPC: 0.43432 (Simulation time: 0 hr 25 min 3 sec) 
Heartbeat CPU  0 instructions:  448000000 cycles:  880426433 heartbeat IPC: 0.41852 cumulative IPC: 0.43427 (Simulation time: 0 hr 25 min 7 sec) 
Heartbeat CPU  0 instructions:  449000000 cycles:  882809324 heartbeat IPC: 0.41966 cumulative IPC: 0.43423 (Simulation time: 0 hr 25 min 11 sec) 
Heartbeat CPU  0 instructions:  450000003 cycles:  885197513 heartbeat IPC: 0.41873 cumulative IPC: 0.43418 (Simulation time: 0 hr 25 min 14 sec) 
Heartbeat CPU  0 instructions:  451000000 cycles:  887563473 heartbeat IPC: 0.42266 cumulative IPC: 0.43415 (Simulation time: 0 hr 25 min 18 sec) 
Heartbeat CPU  0 instructions:  452000000 cycles:  889935664 heartbeat IPC: 0.42155 cumulative IPC: 0.43411 (Simulation time: 0 hr 25 min 22 sec) 
Heartbeat CPU  0 instructions:  453000001 cycles:  892336984 heartbeat IPC: 0.41644 cumulative IPC: 0.43406 (Simulation time: 0 hr 25 min 25 sec) 
Heartbeat CPU  0 instructions:  454000002 cycles:  894739359 heartbeat IPC: 0.41626 cumulative IPC: 0.43401 (Simulation time: 0 hr 25 min 29 sec) 
Heartbeat CPU  0 instructions:  455000000 cycles:  897097040 heartbeat IPC: 0.42414 cumulative IPC: 0.43398 (Simulation time: 0 hr 25 min 33 sec) 
Heartbeat CPU  0 instructions:  456000000 cycles:  899515396 heartbeat IPC: 0.41350 cumulative IPC: 0.43392 (Simulation time: 0 hr 25 min 36 sec) 
Heartbeat CPU  0 instructions:  457000002 cycles:  901873075 heartbeat IPC: 0.42415 cumulative IPC: 0.43389 (Simulation time: 0 hr 25 min 40 sec) 
Heartbeat CPU  0 instructions:  458000003 cycles:  904308393 heartbeat IPC: 0.41062 cumulative IPC: 0.43382 (Simulation time: 0 hr 25 min 44 sec) 
Heartbeat CPU  0 instructions:  459000001 cycles:  906669611 heartbeat IPC: 0.42351 cumulative IPC: 0.43379 (Simulation time: 0 hr 25 min 47 sec) 
Heartbeat CPU  0 instructions:  460000000 cycles:  909077714 heartbeat IPC: 0.41526 cumulative IPC: 0.43374 (Simulation time: 0 hr 25 min 51 sec) 
Heartbeat CPU  0 instructions:  461000002 cycles:  911413948 heartbeat IPC: 0.42804 cumulative IPC: 0.43372 (Simulation time: 0 hr 25 min 55 sec) 
Heartbeat CPU  0 instructions:  462000003 cycles:  913761036 heartbeat IPC: 0.42606 cumulative IPC: 0.43370 (Simulation time: 0 hr 25 min 58 sec) 
Heartbeat CPU  0 instructions:  463000002 cycles:  916171310 heartbeat IPC: 0.41489 cumulative IPC: 0.43365 (Simulation time: 0 hr 26 min 2 sec) 
Heartbeat CPU  0 instructions:  464000000 cycles:  918578267 heartbeat IPC: 0.41546 cumulative IPC: 0.43359 (Simulation time: 0 hr 26 min 6 sec) 
Heartbeat CPU  0 instructions:  465000001 cycles:  920951367 heartbeat IPC: 0.42139 cumulative IPC: 0.43356 (Simulation time: 0 hr 26 min 10 sec) 
Heartbeat CPU  0 instructions:  466000000 cycles:  923323554 heartbeat IPC: 0.42155 cumulative IPC: 0.43353 (Simulation time: 0 hr 26 min 13 sec) 
Heartbeat CPU  0 instructions:  467000001 cycles:  925741645 heartbeat IPC: 0.41355 cumulative IPC: 0.43347 (Simulation time: 0 hr 26 min 17 sec) 
Heartbeat CPU  0 instructions:  468000000 cycles:  928083360 heartbeat IPC: 0.42704 cumulative IPC: 0.43345 (Simulation time: 0 hr 26 min 21 sec) 
Heartbeat CPU  0 instructions:  469000002 cycles:  930471420 heartbeat IPC: 0.41875 cumulative IPC: 0.43341 (Simulation time: 0 hr 26 min 24 sec) 
Heartbeat CPU  0 instructions:  470000003 cycles:  932860965 heartbeat IPC: 0.41849 cumulative IPC: 0.43337 (Simulation time: 0 hr 26 min 28 sec) 
Heartbeat CPU  0 instructions:  471000002 cycles:  935227966 heartbeat IPC: 0.42248 cumulative IPC: 0.43334 (Simulation time: 0 hr 26 min 32 sec) 
Heartbeat CPU  0 instructions:  472000000 cycles:  937616723 heartbeat IPC: 0.41863 cumulative IPC: 0.43330 (Simulation time: 0 hr 26 min 35 sec) 
Heartbeat CPU  0 instructions:  473000001 cycles:  940052646 heartbeat IPC: 0.41052 cumulative IPC: 0.43323 (Simulation time: 0 hr 26 min 39 sec) 
Heartbeat CPU  0 instructions:  474000000 cycles:  942390231 heartbeat IPC: 0.42779 cumulative IPC: 0.43322 (Simulation time: 0 hr 26 min 43 sec) 
Heartbeat CPU  0 instructions:  475000001 cycles:  944805641 heartbeat IPC: 0.41401 cumulative IPC: 0.43317 (Simulation time: 0 hr 26 min 46 sec) 
Heartbeat CPU  0 instructions:  476000000 cycles:  947158413 heartbeat IPC: 0.42503 cumulative IPC: 0.43314 (Simulation time: 0 hr 26 min 50 sec) 
Heartbeat CPU  0 instructions:  477000003 cycles:  949540284 heartbeat IPC: 0.41984 cumulative IPC: 0.43311 (Simulation time: 0 hr 26 min 54 sec) 
Heartbeat CPU  0 instructions:  478000002 cycles:  951925940 heartbeat IPC: 0.41917 cumulative IPC: 0.43307 (Simulation time: 0 hr 26 min 57 sec) 
Heartbeat CPU  0 instructions:  479000003 cycles:  954271921 heartbeat IPC: 0.42626 cumulative IPC: 0.43305 (Simulation time: 0 hr 27 min 1 sec) 
Heartbeat CPU  0 instructions:  480000000 cycles:  956740381 heartbeat IPC: 0.40511 cumulative IPC: 0.43297 (Simulation time: 0 hr 27 min 5 sec) 
Heartbeat CPU  0 instructions:  481000000 cycles:  959082591 heartbeat IPC: 0.42695 cumulative IPC: 0.43296 (Simulation time: 0 hr 27 min 9 sec) 
Heartbeat CPU  0 instructions:  482000003 cycles:  961503788 heartbeat IPC: 0.41302 cumulative IPC: 0.43290 (Simulation time: 0 hr 27 min 12 sec) 
Heartbeat CPU  0 instructions:  483000000 cycles:  963819886 heartbeat IPC: 0.43176 cumulative IPC: 0.43290 (Simulation time: 0 hr 27 min 16 sec) 
Heartbeat CPU  0 instructions:  484000000 cycles:  966200904 heartbeat IPC: 0.41999 cumulative IPC: 0.43286 (Simulation time: 0 hr 27 min 20 sec) 
Heartbeat CPU  0 instructions:  485000001 cycles:  968669242 heartbeat IPC: 0.40513 cumulative IPC: 0.43279 (Simulation time: 0 hr 27 min 23 sec) 
Heartbeat CPU  0 instructions:  486000000 cycles:  971007157 heartbeat IPC: 0.42773 cumulative IPC: 0.43277 (Simulation time: 0 hr 27 min 27 sec) 
Heartbeat CPU  0 instructions:  487000001 cycles:  973395401 heartbeat IPC: 0.41872 cumulative IPC: 0.43274 (Simulation time: 0 hr 27 min 31 sec) 
Heartbeat CPU  0 instructions:  488000000 cycles:  975810949 heartbeat IPC: 0.41398 cumulative IPC: 0.43269 (Simulation time: 0 hr 27 min 34 sec) 
Heartbeat CPU  0 instructions:  489000002 cycles:  978156763 heartbeat IPC: 0.42629 cumulative IPC: 0.43267 (Simulation time: 0 hr 27 min 38 sec) 
Heartbeat CPU  0 instructions:  490000001 cycles:  980557129 heartbeat IPC: 0.41660 cumulative IPC: 0.43263 (Simulation time: 0 hr 27 min 42 sec) 
Heartbeat CPU  0 instructions:  491000001 cycles:  982895537 heartbeat IPC: 0.42764 cumulative IPC: 0.43261 (Simulation time: 0 hr 27 min 45 sec) 
Heartbeat CPU  0 instructions:  492000000 cycles:  985306459 heartbeat IPC: 0.41478 cumulative IPC: 0.43257 (Simulation time: 0 hr 27 min 49 sec) 
Heartbeat CPU  0 instructions:  493000001 cycles:  987699991 heartbeat IPC: 0.41779 cumulative IPC: 0.43253 (Simulation time: 0 hr 27 min 53 sec) 
Heartbeat CPU  0 instructions:  494000001 cycles:  990099086 heartbeat IPC: 0.41682 cumulative IPC: 0.43249 (Simulation time: 0 hr 27 min 56 sec) 
Heartbeat CPU  0 instructions:  495000000 cycles:  992464122 heartbeat IPC: 0.42283 cumulative IPC: 0.43246 (Simulation time: 0 hr 28 min 0 sec) 
Heartbeat CPU  0 instructions:  496000000 cycles:  994859552 heartbeat IPC: 0.41746 cumulative IPC: 0.43242 (Simulation time: 0 hr 28 min 4 sec) 
Heartbeat CPU  0 instructions:  497000002 cycles:  997278444 heartbeat IPC: 0.41341 cumulative IPC: 0.43237 (Simulation time: 0 hr 28 min 8 sec) 
Heartbeat CPU  0 instructions:  498000000 cycles:  999587561 heartbeat IPC: 0.43307 cumulative IPC: 0.43237 (Simulation time: 0 hr 28 min 11 sec) 
Heartbeat CPU  0 instructions:  499000001 cycles: 1002013918 heartbeat IPC: 0.41214 cumulative IPC: 0.43232 (Simulation time: 0 hr 28 min 15 sec) 
Heartbeat CPU  0 instructions:  500000000 cycles: 1004392195 heartbeat IPC: 0.42047 cumulative IPC: 0.43229 (Simulation time: 0 hr 28 min 19 sec) 
Heartbeat CPU  0 instructions:  501000000 cycles: 1006775670 heartbeat IPC: 0.41956 cumulative IPC: 0.43226 (Simulation time: 0 hr 28 min 22 sec) 
Heartbeat CPU  0 instructions:  502000003 cycles: 1009156546 heartbeat IPC: 0.42001 cumulative IPC: 0.43222 (Simulation time: 0 hr 28 min 26 sec) 
Heartbeat CPU  0 instructions:  503000003 cycles: 1011563095 heartbeat IPC: 0.41553 cumulative IPC: 0.43218 (Simulation time: 0 hr 28 min 30 sec) 
Heartbeat CPU  0 instructions:  504000000 cycles: 1013930116 heartbeat IPC: 0.42247 cumulative IPC: 0.43216 (Simulation time: 0 hr 28 min 33 sec) 
Heartbeat CPU  0 instructions:  505000001 cycles: 1016308511 heartbeat IPC: 0.42045 cumulative IPC: 0.43213 (Simulation time: 0 hr 28 min 37 sec) 
Heartbeat CPU  0 instructions:  506000001 cycles: 1018687629 heartbeat IPC: 0.42032 cumulative IPC: 0.43210 (Simulation time: 0 hr 28 min 41 sec) 
Heartbeat CPU  0 instructions:  507000003 cycles: 1021095497 heartbeat IPC: 0.41531 cumulative IPC: 0.43205 (Simulation time: 0 hr 28 min 44 sec) 
Heartbeat CPU  0 instructions:  508000000 cycles: 1023505786 heartbeat IPC: 0.41489 cumulative IPC: 0.43201 (Simulation time: 0 hr 28 min 48 sec) 
Heartbeat CPU  0 instructions:  509000000 cycles: 1025884861 heartbeat IPC: 0.42033 cumulative IPC: 0.43198 (Simulation time: 0 hr 28 min 52 sec) 
Heartbeat CPU  0 instructions:  510000002 cycles: 1028241313 heartbeat IPC: 0.42437 cumulative IPC: 0.43196 (Simulation time: 0 hr 28 min 55 sec) 
Heartbeat CPU  0 instructions:  511000003 cycles: 1030587867 heartbeat IPC: 0.42616 cumulative IPC: 0.43195 (Simulation time: 0 hr 28 min 59 sec) 
Heartbeat CPU  0 instructions:  512000000 cycles: 1033047046 heartbeat IPC: 0.40664 cumulative IPC: 0.43188 (Simulation time: 0 hr 29 min 3 sec) 
Heartbeat CPU  0 instructions:  513000001 cycles: 1035368934 heartbeat IPC: 0.43068 cumulative IPC: 0.43188 (Simulation time: 0 hr 29 min 6 sec) 
Heartbeat CPU  0 instructions:  514000003 cycles: 1037781779 heartbeat IPC: 0.41445 cumulative IPC: 0.43184 (Simulation time: 0 hr 29 min 10 sec) 
Heartbeat CPU  0 instructions:  515000002 cycles: 1040201908 heartbeat IPC: 0.41320 cumulative IPC: 0.43179 (Simulation time: 0 hr 29 min 14 sec) 
Heartbeat CPU  0 instructions:  516000000 cycles: 1042559206 heartbeat IPC: 0.42421 cumulative IPC: 0.43177 (Simulation time: 0 hr 29 min 17 sec) 
Heartbeat CPU  0 instructions:  517000001 cycles: 1044960536 heartbeat IPC: 0.41644 cumulative IPC: 0.43173 (Simulation time: 0 hr 29 min 21 sec) 
Heartbeat CPU  0 instructions:  518000000 cycles: 1047328139 heartbeat IPC: 0.42237 cumulative IPC: 0.43171 (Simulation time: 0 hr 29 min 25 sec) 
Heartbeat CPU  0 instructions:  519000003 cycles: 1049699240 heartbeat IPC: 0.42175 cumulative IPC: 0.43169 (Simulation time: 0 hr 29 min 29 sec) 
Heartbeat CPU  0 instructions:  520000000 cycles: 1052056514 heartbeat IPC: 0.42422 cumulative IPC: 0.43167 (Simulation time: 0 hr 29 min 32 sec) 
Heartbeat CPU  0 instructions:  521000000 cycles: 1054497744 heartbeat IPC: 0.40963 cumulative IPC: 0.43161 (Simulation time: 0 hr 29 min 36 sec) 
Heartbeat CPU  0 instructions:  522000003 cycles: 1056838642 heartbeat IPC: 0.42719 cumulative IPC: 0.43160 (Simulation time: 0 hr 29 min 40 sec) 
Heartbeat CPU  0 instructions:  523000002 cycles: 1059253605 heartbeat IPC: 0.41408 cumulative IPC: 0.43156 (Simulation time: 0 hr 29 min 43 sec) 
Heartbeat CPU  0 instructions:  524000000 cycles: 1061633482 heartbeat IPC: 0.42019 cumulative IPC: 0.43153 (Simulation time: 0 hr 29 min 47 sec) 
Heartbeat CPU  0 instructions:  525000001 cycles: 1064007245 heartbeat IPC: 0.42127 cumulative IPC: 0.43151 (Simulation time: 0 hr 29 min 51 sec) 
Heartbeat CPU  0 instructions:  526000000 cycles: 1066384217 heartbeat IPC: 0.42070 cumulative IPC: 0.43148 (Simulation time: 0 hr 29 min 54 sec) 
Heartbeat CPU  0 instructions:  527000002 cycles: 1068798307 heartbeat IPC: 0.41424 cumulative IPC: 0.43144 (Simulation time: 0 hr 29 min 58 sec) 
Heartbeat CPU  0 instructions:  528000000 cycles: 1071164208 heartbeat IPC: 0.42267 cumulative IPC: 0.43142 (Simulation time: 0 hr 30 min 2 sec) 
[...]
Heartbeat CPU  0 instructions:  535000003 cycles: 1087821272 heartbeat IPC: 0.42834 cumulative IPC: 0.43123 (Simulation time: 0 hr 30 min 27 sec) 
Heartbeat CPU  0 instructions:  536000000 cycles: 1090212847 heartbeat IPC: 0.41813 cumulative IPC: 0.43120 (Simulation time: 0 hr 30 min 31 sec) 
Heartbeat CPU  0 instructions:  537000001 cycles: 1092630685 heartbeat IPC: 0.41359 cumulative IPC: 0.43116 (Simulation time: 0 hr 30 min 35 sec) 
Heartbeat CPU  0 instructions:  538000000 cycles: 1094979428 heartbeat IPC: 0.42576 cumulative IPC: 0.43115 (Simulation time: 0 hr 30 min 38 sec) 
Heartbeat CPU  0 instructions:  539000000 cycles: 1097400968 heartbeat IPC: 0.41296 cumulative IPC: 0.43110 (Simulation time: 0 hr 30 min 42 sec) 
Heartbeat CPU  0 instructions:  540000000 cycles: 1099813158 heartbeat IPC: 0.41456 cumulative IPC: 0.43106 (Simulation time: 0 hr 30 min 45 sec) 
Heartbeat CPU  0 instructions:  541000002 cycles: 1102127917 heartbeat IPC: 0.43201 cumulative IPC: 0.43107 (Simulation time: 0 hr 30 min 49 sec) 
Heartbeat CPU  0 instructions:  542000000 cycles: 1103625259 heartbeat IPC: 0.66785 cumulative IPC: 0.43141 (Simulation time: 0 hr 30 min 52 sec) 
Heartbeat CPU  0 instructions:  543000002 cycles: 1106225926 heartbeat IPC: 0.38452 cumulative IPC: 0.43129 (Simulation time: 0 hr 30 min 55 sec) 
Heartbeat CPU  0 instructions:  544000000 cycles: 1108670389 heartbeat IPC: 0.40909 cumulative IPC: 0.43124 (Simulation time: 0 hr 30 min 59 sec) 
Heartbeat CPU  0 instructions:  545000002 cycles: 1111015326 heartbeat IPC: 0.42645 cumulative IPC: 0.43123 (Simulation time: 0 hr 31 min 3 sec) 
Heartbeat CPU  0 instructions:  546000002 cycles: 1113308340 heartbeat IPC: 0.43611 cumulative IPC: 0.43124 (Simulation time: 0 hr 31 min 7 sec) 
Heartbeat CPU  0 instructions:  547000000 cycles: 1115653392 heartbeat IPC: 0.42643 cumulative IPC: 0.43123 (Simulation time: 0 hr 31 min 11 sec) 
Heartbeat CPU  0 instructions:  548000000 cycles: 1117928226 heartbeat IPC: 0.43959 cumulative IPC: 0.43125 (Simulation time: 0 hr 31 min 14 sec) 
Heartbeat CPU  0 instructions:  549000002 cycles: 1120334638 heartbeat IPC: 0.41556 cumulative IPC: 0.43121 (Simulation time: 0 hr 31 min 18 sec) 
Heartbeat CPU  0 instructions:  550000000 cycles: 1122751340 heartbeat IPC: 0.41379 cumulative IPC: 0.43117 (Simulation time: 0 hr 31 min 22 sec) 
Heartbeat CPU  0 instructions:  551000000 cycles: 1125179305 heartbeat IPC: 0.41187 cumulative IPC: 0.43113 (Simulation time: 0 hr 31 min 25 sec) 
Heartbeat CPU  0 instructions:  552000000 cycles: 1127615842 heartbeat IPC: 0.41042 cumulative IPC: 0.43108 (Simulation time: 0 hr 31 min 29 sec) 
Heartbeat CPU  0 instructions:  553000001 cycles: 1129935313 heartbeat IPC: 0.43113 cumulative IPC: 0.43108 (Simulation time: 0 hr 31 min 33 sec) 
Heartbeat CPU  0 instructions:  554000002 cycles: 1132307825 heartbeat IPC: 0.42149 cumulative IPC: 0.43106 (Simulation time: 0 hr 31 min 36 sec) 
Heartbeat CPU  0 instructions:  555000000 cycles: 1134717237 heartbeat IPC: 0.41504 cumulative IPC: 0.43102 (Simulation time: 0 hr 31 min 40 sec) 
Heartbeat CPU  0 instructions:  556000000 cycles: 1137026369 heartbeat IPC: 0.43306 cumulative IPC: 0.43103 (Simulation time: 0 hr 31 min 44 sec) 
Heartbeat CPU  0 instructions:  557000001 cycles: 1139415262 heartbeat IPC: 0.41860 cumulative IPC: 0.43100 (Simulation time: 0 hr 31 min 47 sec) 
Heartbeat CPU  0 instructions:  558000003 cycles: 1141852549 heartbeat IPC: 0.41029 cumulative IPC: 0.43095 (Simulation time: 0 hr 31 min 51 sec) 
Heartbeat CPU  0 instructions:  559000000 cycles: 1144264942 heartbeat IPC: 0.41452 cumulative IPC: 0.43091 (Simulation time: 0 hr 31 min 55 sec) 
Heartbeat CPU  0 instructions:  560000000 cycles: 1146606024 heartbeat IPC: 0.42715 cumulative IPC: 0.43090 (Simulation time: 0 hr 31 min 58 sec) 
Heartbeat CPU  0 instructions:  561000000 cycles: 1149012520 heartbeat IPC: 0.41554 cumulative IPC: 0.43087 (Simulation time: 0 hr 32 min 2 sec) 
Heartbeat CPU  0 instructions:  562000003 cycles: 1151432810 heartbeat IPC: 0.41317 cumulative IPC: 0.43083 (Simulation time: 0 hr 32 min 6 sec) 
Heartbeat CPU  0 instructions:  563000003 cycles: 1153765381 heartbeat IPC: 0.42871 cumulative IPC: 0.43083 (Simulation time: 0 hr 32 min 9 sec) 
Heartbeat CPU  0 instructions:  564000000 cycles: 1156093378 heartbeat IPC: 0.42955 cumulative IPC: 0.43082 (Simulation time: 0 hr 32 min 13 sec) 
Heartbeat CPU  0 instructions:  565000000 cycles: 1158554470 heartbeat IPC: 0.40632 cumulative IPC: 0.43077 (Simulation time: 0 hr 32 min 17 sec) 
Heartbeat CPU  0 instructions:  566000001 cycles: 1160931464 heartbeat IPC: 0.42070 cumulative IPC: 0.43075 (Simulation time: 0 hr 32 min 20 sec) 
Heartbeat CPU  0 instructions:  567000000 cycles: 1163262728 heartbeat IPC: 0.42895 cumulative IPC: 0.43074 (Simulation time: 0 hr 32 min 24 sec) 
Heartbeat CPU  0 instructions:  568000000 cycles: 1165645821 heartbeat IPC: 0.41962 cumulative IPC: 0.43072 (Simulation time: 0 hr 32 min 28 sec) 
Heartbeat CPU  0 instructions:  569000003 cycles: 1168053770 heartbeat IPC: 0.41529 cumulative IPC: 0.43068 (Simulation time: 0 hr 32 min 32 sec) 
Heartbeat CPU  0 instructions:  570000000 cycles: 1170476676 heartbeat IPC: 0.41273 cumulative IPC: 0.43064 (Simulation time: 0 hr 32 min 35 sec) 
Heartbeat CPU  0 instructions:  571000000 cycles: 1172827684 heartbeat IPC: 0.42535 cumulative IPC: 0.43063 (Simulation time: 0 hr 32 min 39 sec) 
Heartbeat CPU  0 instructions:  572000000 cycles: 1175206915 heartbeat IPC: 0.42030 cumulative IPC: 0.43061 (Simulation time: 0 hr 32 min 43 sec) 
Heartbeat CPU  0 instructions:  573000001 cycles: 1177577139 heartbeat IPC: 0.42190 cumulative IPC: 0.43059 (Simulation time: 0 hr 32 min 46 sec) 
Heartbeat CPU  0 instructions:  574000001 cycles: 1179940291 heartbeat IPC: 0.42316 cumulative IPC: 0.43057 (Simulation time: 0 hr 32 min 50 sec) 
Heartbeat CPU  0 instructions:  575000001 cycles: 1182328376 heartbeat IPC: 0.41875 cumulative IPC: 0.43055 (Simulation time: 0 hr 32 min 54 sec) 
Heartbeat CPU  0 instructions:  576000000 cycles: 1184704363 heartbeat IPC: 0.42088 cumulative IPC: 0.43053 (Simulation time: 0 hr 32 min 57 sec) 
Heartbeat CPU  0 instructions:  577000001 cycles: 1187146599 heartbeat IPC: 0.40946 cumulative IPC: 0.43048 (Simulation time: 0 hr 33 min 1 sec) 
Heartbeat CPU  0 instructions:  578000001 cycles: 1189475651 heartbeat IPC: 0.42936 cumulative IPC: 0.43048 (Simulation time: 0 hr 33 min 5 sec) 
Heartbeat CPU  0 instructions:  579000000 cycles: 1191924237 heartbeat IPC: 0.40840 cumulative IPC: 0.43043 (Simulation time: 0 hr 33 min 8 sec) 
Heartbeat CPU  0 instructions:  580000000 cycles: 1194308523 heartbeat IPC: 0.41941 cumulative IPC: 0.43041 (Simulation time: 0 hr 33 min 12 sec) 
Heartbeat CPU  0 instructions:  581000002 cycles: 1196673347 heartbeat IPC: 0.42287 cumulative IPC: 0.43039 (Simulation time: 0 hr 33 min 15 sec) 
Heartbeat CPU  0 instructions:  582000000 cycles: 1199053465 heartbeat IPC: 0.42015 cumulative IPC: 0.43037 (Simulation time: 0 hr 33 min 19 sec) 
Heartbeat CPU  0 instructions:  583000000 cycles: 1201438400 heartbeat IPC: 0.41930 cumulative IPC: 0.43035 (Simulation time: 0 hr 33 min 23 sec) 
Heartbeat CPU  0 instructions:  584000000 cycles: 1203838002 heartbeat IPC: 0.41674 cumulative IPC: 0.43032 (Simulation time: 0 hr 33 min 27 sec) 
Heartbeat CPU  0 instructions:  585000001 cycles: 1206245416 heartbeat IPC: 0.41538 cumulative IPC: 0.43028 (Simulation time: 0 hr 33 min 30 sec) 
Heartbeat CPU  0 instructions:  586000000 cycles: 1208589568 heartbeat IPC: 0.42659 cumulative IPC: 0.43028 (Simulation time: 0 hr 33 min 34 sec) 
Heartbeat CPU  0 instructions:  587000001 cycles: 1210950899 heartbeat IPC: 0.42349 cumulative IPC: 0.43026 (Simulation time: 0 hr 33 min 37 sec) 
Heartbeat CPU  0 instructions:  588000000 cycles: 1213371991 heartbeat IPC: 0.41304 cumulative IPC: 0.43023 (Simulation time: 0 hr 33 min 41 sec) 
Heartbeat CPU  0 instructions:  589000000 cycles: 1215745786 heartbeat IPC: 0.42127 cumulative IPC: 0.43021 (Simulation time: 0 hr 33 min 45 sec) 
Heartbeat CPU  0 instructions:  590000003 cycles: 1218105709 heartbeat IPC: 0.42374 cumulative IPC: 0.43019 (Simulation time: 0 hr 33 min 48 sec) 
Heartbeat CPU  0 instructions:  591000002 cycles: 1220444671 heartbeat IPC: 0.42754 cumulative IPC: 0.43019 (Simulation time: 0 hr 33 min 52 sec) 
Heartbeat CPU  0 instructions:  592000000 cycles: 1222847399 heartbeat IPC: 0.41619 cumulative IPC: 0.43016 (Simulation time: 0 hr 33 min 56 sec) 
Heartbeat CPU  0 instructions:  593000001 cycles: 1225239871 heartbeat IPC: 0.41798 cumulative IPC: 0.43013 (Simulation time: 0 hr 34 min 0 sec) 
Heartbeat CPU  0 instructions:  594000000 cycles: 1227623928 heartbeat IPC: 0.41945 cumulative IPC: 0.43011 (Simulation time: 0 hr 34 min 3 sec) 
Heartbeat CPU  0 instructions:  595000000 cycles: 1230046983 heartbeat IPC: 0.41270 cumulative IPC: 0.43008 (Simulation time: 0 hr 34 min 7 sec) 
Heartbeat CPU  0 instructions:  596000000 cycles: 1232380521 heartbeat IPC: 0.42853 cumulative IPC: 0.43007 (Simulation time: 0 hr 34 min 10 sec) 
Heartbeat CPU  0 instructions:  597000003 cycles: 1234815095 heartbeat IPC: 0.41075 cumulative IPC: 0.43003 (Simulation time: 0 hr 34 min 14 sec) 
Heartbeat CPU  0 instructions:  598000002 cycles: 1237152196 heartbeat IPC: 0.42788 cumulative IPC: 0.43003 (Simulation time: 0 hr 34 min 18 sec) 
Heartbeat CPU  0 instructions:  599000003 cycles: 1239554635 heartbeat IPC: 0.41624 cumulative IPC: 0.43000 (Simulation time: 0 hr 34 min 22 sec) 
Heartbeat CPU  0 instructions:  600000000 cycles: 1241925974 heartbeat IPC: 0.42170 cumulative IPC: 0.42998 (Simulation time: 0 hr 34 min 25 sec) 
Finished CPU 0 instructions: 500000000 cycles: 1162840832 cumulative IPC: 0.42998 (Simulation time: 0 hr 34 min 25 sec) 

ChampSim completed all CPUs

[ROI Statistics]
Core_0_instructions 500000000
Core_0_cycles 1162840832
Core_0_IPC 0.42998

Core_0_branch_prediction_accuracy 99.58640
Core_0_branch_MPKI 0.02120
Core_0_average_ROB_occupancy_at_mispredict 244.44741

Core_0_L1D_total_access 288688081
Core_0_L1D_total_hit 284378157
Core_0_L1D_total_miss 4309924
Core_0_L1D_loads 257709597
Core_0_L1D_load_hit 253400572
Core_0_L1D_load_miss 4309025
Core_0_L1D_RFOs 30978484
Core_0_L1D_RFO_hit 30977585
Core_0_L1D_RFO_miss 899
Core_0_L1D_prefetches 0
Core_0_L1D_prefetch_hit 0
Core_0_L1D_prefetch_miss 0
Core_0_L1D_writebacks 0
Core_0_L1D_writeback_hit 0
Core_0_L1D_writeback_miss 0
Core_0_L1D_prefetch_requested 0
Core_0_L1D_prefetch_dropped 0
Core_0_L1D_prefetch_issued 0
Core_0_L1D_prefetch_filled 0
Core_0_L1D_prefetch_useful 0
Core_0_L1D_prefetch_useless 0
Core_0_L1D_prefetch_late 0
Core_0_L1D_average_miss_latency 165.03053

Core_0_L1D_rq_access 307605862
Core_0_L1D_rq_forward 0
Core_0_L1D_rq_merged 49844653
Core_0_L1D_rq_to_cache 257737724
Core_0_L1D_rq_full 0

Core_0_L1D_wq_access 30978597
Core_0_L1D_wq_forward 23485
Core_0_L1D_wq_merged 0
Core_0_L1D_wq_to_cache 30978597
Core_0_L1D_wq_full 0

Core_0_L1D_pq_access 0
Core_0_L1D_pq_forward 0
Core_0_L1D_pq_merged 0
Core_0_L1D_pq_to_cache 0
Core_0_L1D_pq_full 0

Core_0_L1D_acc_epochs 1199654
Core_0_L1D_acc_level_0 1199654
Core_0_L1D_acc_level_1 0
Core_0_L1D_acc_level_2 0
Core_0_L1D_acc_level_3 0
Core_0_L1D_acc_level_4 0
Core_0_L1D_acc_level_5 0
Core_0_L1D_acc_level_6 0
Core_0_L1D_acc_level_7 0
Core_0_L1D_acc_level_8 0
Core_0_L1D_acc_level_9 0

Core_0_L1I_total_access 133908898
Core_0_L1I_total_hit 133908721
Core_0_L1I_total_miss 177
Core_0_L1I_loads 133908898
Core_0_L1I_load_hit 133908721
Core_0_L1I_load_miss 177
Core_0_L1I_RFOs 0
Core_0_L1I_RFO_hit 0
Core_0_L1I_RFO_miss 0
Core_0_L1I_prefetches 0
Core_0_L1I_prefetch_hit 0
Core_0_L1I_prefetch_miss 0
Core_0_L1I_writebacks 0
Core_0_L1I_writeback_hit 0
Core_0_L1I_writeback_miss 0
Core_0_L1I_prefetch_requested 0
Core_0_L1I_prefetch_dropped 0
Core_0_L1I_prefetch_issued 0
Core_0_L1I_prefetch_filled 0
Core_0_L1I_prefetch_useful 0
Core_0_L1I_prefetch_useless 0
Core_0_L1I_prefetch_late 0
Core_0_L1I_average_miss_latency 2820.62712

Core_0_L1I_rq_access 500000003
Core_0_L1I_rq_forward 0
Core_0_L1I_rq_merged 366091029
Core_0_L1I_rq_to_cache 133908974
Core_0_L1I_rq_full 0

Core_0_L1I_wq_access 0
Core_0_L1I_wq_forward 0
Core_0_L1I_wq_merged 0
Core_0_L1I_wq_to_cache 0
Core_0_L1I_wq_full 0

Core_0_L1I_pq_access 0
Core_0_L1I_pq_forward 0
Core_0_L1I_pq_merged 0
Core_0_L1I_pq_to_cache 0
Core_0_L1I_pq_full 0

Core_0_L1I_acc_epochs 1199654
Core_0_L1I_acc_level_0 1199654
Core_0_L1I_acc_level_1 0
Core_0_L1I_acc_level_2 0
Core_0_L1I_acc_level_3 0
Core_0_L1I_acc_level_4 0
Core_0_L1I_acc_level_5 0
Core_0_L1I_acc_level_6 0
Core_0_L1I_acc_level_7 0
Core_0_L1I_acc_level_8 0
Core_0_L1I_acc_level_9 0

Core_0_L2C_total_access 10127039
Core_0_L2C_total_hit 6666337
Core_0_L2C_total_miss 3460702
Core_0_L2C_loads 4308318
Core_0_L2C_load_hit 2660745
Core_0_L2C_load_miss 1647573
Core_0_L2C_RFOs 783
Core_0_L2C_RFO_hit 761
Core_0_L2C_RFO_miss 22
Core_0_L2C_prefetches 3891943
Core_0_L2C_prefetch_hit 2078953
Core_0_L2C_prefetch_miss 1812990
Core_0_L2C_writebacks 1925995
Core_0_L2C_writeback_hit 1925878
Core_0_L2C_writeback_miss 117
Core_0_L2C_prefetch_requested 16707536
Core_0_L2C_prefetch_dropped 0
Core_0_L2C_prefetch_issued 16707536
Core_0_L2C_prefetch_filled 2187778
Core_0_L2C_prefetch_useful 2126501
Core_0_L2C_prefetch_useless 61191
Core_0_L2C_prefetch_late 37438
Core_0_L2C_average_miss_latency 301.29100

Core_0_L2C_rq_access 4310101
Core_0_L2C_rq_forward 0
Core_0_L2C_rq_merged 0
Core_0_L2C_rq_to_cache 4309101
Core_0_L2C_rq_full 0

Core_0_L2C_wq_access 1925995
Core_0_L2C_wq_forward 1000
Core_0_L2C_wq_merged 0
Core_0_L2C_wq_to_cache 1925995
Core_0_L2C_wq_full 0

Core_0_L2C_pq_access 16707536
Core_0_L2C_pq_forward 0
Core_0_L2C_pq_merged 7017
Core_0_L2C_pq_to_cache 16700519
Core_0_L2C_pq_full 0

Core_0_L2C_acc_epochs 1199654
Core_0_L2C_acc_level_0 299443
Core_0_L2C_acc_level_1 100934
Core_0_L2C_acc_level_2 83139
Core_0_L2C_acc_level_3 73129
Core_0_L2C_acc_level_4 59304
Core_0_L2C_acc_level_5 79158
Core_0_L2C_acc_level_6 60751
Core_0_L2C_acc_level_7 65145
Core_0_L2C_acc_level_8 66410
Core_0_L2C_acc_level_9 312241

Core_0_LLC_total_access 14027674
Core_0_LLC_total_hit 10574493
Core_0_LLC_total_miss 3453181
Core_0_LLC_loads 1610176
Core_0_LLC_load_hit 1311210
Core_0_LLC_load_miss 298966
Core_0_LLC_RFOs 22
Core_0_LLC_RFO_hit 8
Core_0_LLC_RFO_miss 14
Core_0_LLC_prefetches 10508007
Core_0_LLC_prefetch_hit 7361799
Core_0_LLC_prefetch_miss 3146208
Core_0_LLC_writebacks 1909469
Core_0_LLC_writeback_hit 1901476
Core_0_LLC_writeback_miss 7993
Core_0_LLC_prefetch_requested 0
Core_0_LLC_prefetch_dropped 0
Core_0_LLC_prefetch_issued 0
Core_0_LLC_prefetch_filled 3855041
Core_0_LLC_prefetch_useful 1488903
Core_0_LLC_prefetch_useless 2346777
Core_0_LLC_prefetch_late 41924
Core_0_LLC_average_miss_latency 3571.29170

Core_0_LLC_rq_access 1610198
Core_0_LLC_rq_forward 0
Core_0_LLC_rq_merged 0
Core_0_LLC_rq_to_cache 1610198
Core_0_LLC_rq_full 0

Core_0_LLC_wq_access 1909469
Core_0_LLC_wq_forward 0
Core_0_LLC_wq_merged 0
Core_0_LLC_wq_to_cache 1909469
Core_0_LLC_wq_full 0

Core_0_LLC_pq_access 14546741
Core_0_LLC_pq_forward 0
Core_0_LLC_pq_merged 42
Core_0_LLC_pq_to_cache 14546699
Core_0_LLC_pq_full 0

Core_0_LLC_acc_epochs 1212819
Core_0_LLC_acc_level_0 399577
Core_0_LLC_acc_level_1 195753
Core_0_LLC_acc_level_2 157473
Core_0_LLC_acc_level_3 112072
Core_0_LLC_acc_level_4 64273
Core_0_LLC_acc_level_5 76934
Core_0_LLC_acc_level_6 41690
Core_0_LLC_acc_level_7 31461
Core_0_LLC_acc_level_8 23988
Core_0_LLC_acc_level_9 109598

Core_0_major_page_fault 0
Core_0_minor_page_fault 169020

spp.pref.total 16707536
spp.pref.at_L2 2526224
spp.pref.at_LLC 14181312

spp.depth.max 9
spp.depth.min 0
spp.depth.avg 3

spp.breadth.max 2
spp.breadth.min 0
spp.breadth.avg 0

delta_1 16114087
delta_28 554055
delta_30 320283
delta_-29 288852
delta_2 61396
delta_29 45536
delta_-1 4950
delta_3 4947
delta_-21 3190
delta_20 2684
delta_6 2094
delta_4 1841
delta_-13 1772
delta_24 1232
delta_-25 1154
delta_13 941
delta_57 877
delta_-2 861
delta_-10 853
delta_10 637
delta_-9 593
delta_-8 424
delta_-18 395
delta_12 390
delta_16 389
delta_-23 379
delta_-5 363
delta_23 313
delta_-17 275
delta_21 255
delta_-16 251
delta_14 243
delta_5 232
delta_26 189
delta_11 178
delta_-4 138
delta_7 133
delta_19 124
delta_-19 119
delta_8 111
delta_-3 108
delta_-15 103
delta_9 103
delta_-22 80
delta_-40 63
delta_-55 37
delta_-30 29
delta_31 28
delta_22 22
delta_-54 20
delta_-56 18
delta_17 18
delta_-39 16
delta_-7 14
delta_34 11
delta_15 9
delta_48 6
delta_32 6
delta_33 4
delta_50 3
delta_-26 3
delta_-12 2
delta_58 1
delta_43 1
delta_-14 1

depth_1_delta_1 4306630
depth_1_delta_28 304185
depth_1_delta_30 125589
depth_1_delta_-29 107966
depth_1_delta_29 43082
depth_1_delta_2 37766
depth_1_delta_-1 4707
depth_1_delta_3 4444
depth_1_delta_-21 2620
depth_1_delta_20 2415
depth_1_delta_6 1997
depth_1_delta_4 1800
depth_1_delta_-13 1678
depth_1_delta_24 1056
depth_1_delta_-25 946
depth_1_delta_57 867
depth_1_delta_-2 849
depth_1_delta_-10 848
depth_1_delta_13 634
depth_1_delta_10 574
depth_1_delta_-9 467
depth_1_delta_12 378
depth_1_delta_-23 373
depth_1_delta_-8 366
depth_1_delta_-5 353
depth_1_delta_-18 343
depth_1_delta_23 302
depth_1_delta_16 293
depth_1_delta_-17 269
depth_1_delta_21 254
depth_1_delta_14 227
depth_1_delta_5 224
depth_1_delta_-16 206
depth_1_delta_11 178
depth_1_delta_-4 137
depth_1_delta_7 131
depth_1_delta_26 119
depth_1_delta_-19 119
depth_1_delta_19 113
depth_1_delta_8 111
depth_1_delta_-3 108
depth_1_delta_-15 99
depth_1_delta_9 99
depth_1_delta_-22 80
depth_1_delta_-40 63
depth_1_delta_-55 37
depth_1_delta_31 28
depth_1_delta_-30 26
depth_1_delta_-54 20
depth_1_delta_22 20
depth_1_delta_-56 18
depth_1_delta_17 18
depth_1_delta_-39 16
depth_1_delta_-7 14
depth_1_delta_34 11
depth_1_delta_15 9
depth_1_delta_48 6
depth_1_delta_32 6
depth_1_delta_33 4
depth_1_delta_50 3
depth_1_delta_-26 3
depth_1_delta_-12 2
depth_1_delta_58 1
depth_1_delta_43 1
depth_1_delta_-14 1
depth_2_delta_1 3770517
depth_2_delta_28 197368
depth_2_delta_30 87619
depth_2_delta_-29 81498
depth_2_delta_2 17410
depth_2_delta_29 2390
depth_2_delta_-21 567
depth_2_delta_3 494
depth_2_delta_13 306
depth_2_delta_20 263
depth_2_delta_-1 224
depth_2_delta_-25 181
depth_2_delta_24 176
depth_2_delta_-9 115
depth_2_delta_6 97
depth_2_delta_16 96
depth_2_delta_-13 94
depth_2_delta_10 63
depth_2_delta_-8 58
depth_2_delta_-18 52
depth_2_delta_26 50
depth_2_delta_-16 45
depth_2_delta_4 41
depth_2_delta_14 16
depth_2_delta_-2 12
depth_2_delta_12 12
depth_2_delta_19 11
depth_2_delta_23 11
depth_2_delta_-5 10
depth_2_delta_57 9
depth_2_delta_5 8
depth_2_delta_-23 6
depth_2_delta_-17 6
depth_2_delta_-10 5
depth_2_delta_9 4
depth_2_delta_-15 4
depth_2_delta_-30 3
depth_2_delta_22 2
depth_2_delta_7 2
depth_2_delta_21 1
depth_2_delta_-4 1
depth_3_delta_1 3137164
depth_3_delta_30 57905
depth_3_delta_28 49134
depth_3_delta_-29 45497
depth_3_delta_2 4604
depth_3_delta_29 64
depth_3_delta_-25 26
depth_3_delta_-1 19
depth_3_delta_26 19
depth_3_delta_-9 11
depth_3_delta_3 9
depth_3_delta_20 6
depth_3_delta_-21 3
depth_3_delta_13 1
depth_3_delta_57 1
depth_4_delta_1 2664675
depth_4_delta_-29 34155
depth_4_delta_30 30919
depth_4_delta_28 3298
depth_4_delta_2 1616
depth_4_delta_-25 1
depth_4_delta_26 1
depth_5_delta_1 1718698
depth_5_delta_-29 17573
depth_5_delta_30 16475
depth_5_delta_28 70
depth_6_delta_1 433749
depth_6_delta_-29 2160
depth_6_delta_30 1775
depth_7_delta_1 78709
depth_7_delta_-29 3
depth_7_delta_30 1
depth_8_delta_1 3833
depth_9_delta_1 112

Channel_0_RQ_row_buffer_hit 1220955
Channel_0_RQ_row_buffer_miss 2224233
Channel_0_WQ_row_buffer_hit 512692
Channel_0_WQ_row_buffer_miss 1395731
Channel_0_WQ_full 0
Channel_0_dbus_congested 5524808

avg_congested_cycle 199

DRAM_bw_pochs 4851274
DRAM_bw_level_0 2806473
DRAM_bw_level_1 0
DRAM_bw_level_2 0
DRAM_bw_level_3 2044801
