*************************************************
   ChampSim Multicore Out-of-Order Simulator
   Last compiled: Dec 11 2024 17:59:53
*************************************************
parsing config file: /home/functionmain/桌面/Pythia/config/spp_dev2.ini

trace_0 /home/functionmain/桌面/Pythia/traces/459.GemsFDTD-1418B.champsimtrace.xz
adding L2C_PREFETCHER: SPP_dev2
Initialize SIGNATURE TABLE
ST_SET: 1
ST_WAY: 256
ST_TAG_BIT: 16
ST_TAG_MASK: ffff

Initialize PATTERN TABLE
PT_SET: 512
PT_WAY: 4
SIG_DELTA_BIT: 7
C_SIG_BIT: 4
C_DELTA_BIT: 4

Initialize PREFETCH FILTER
FILTER_SET: 1024
fill_threshold: 90
pf_threshold: 40

Initialize SHIP state
warmup_instructions 100000000
simulation_instructions 500000000
champsim_seed 272
measure_ipc 0
measure_ipc_epoch 1000
measure_dram_bw 1
measure_dram_bw_epoch 256
measure_cache_acc 1
measure_cache_acc_epoch 1024
l1d_perfect 0
l2c_perfect 0
llc_perfect 0
l1d_semi_perfect 0
l2c_semi_perfect 0
llc_semi_perfect 0
semi_perfect_cache_page_buffer_size 64

num_cpus 1
cpu_freq 4000
dram_io_freq 150
page_size 4096
block_size 64
max_read_per_cycle 8
max_fill_per_cycle 1
dram_channels 1
log2_dram_channels 0
dram_ranks 1
dram_banks 8
dram_rows 65536
dram_columns 128
dram_row_size 8
dram_size 4096
dram_pages 1048576

fetch_width 6
decode_width 6
exec_width 4
lq_width 2
sq_width 2
retire_width 4
scheduler_size 128
branch_mispredict_penalty 20
rob_size 256
lq_size 72
sq_size 56
num_instr_destinations_sparc 4
num_instr_destinations 2
num_instr_sources 4

itlb_set 16
itlb_way 8
itlb_rq_size 16
itlb_wq_size 16
itlb_pq_size 0
itlb_mshr_size 8
itlb_latency 1

dtlb_set 16
dtlb_way 4
dtlb_rq_size 16
dtlb_wq_size 16
dtlb_pq_size 0
dtlb_mshr_size 8
dtlb_latency 1

stlb_set 128
stlb_way 12
stlb_rq_size 32
stlb_wq_size 32
stlb_pq_size 0
stlb_mshr_size 16
stlb_latency 8

l1i_size 32
l1i_set 64
l1i_way 8
l1i_rq_size 64
l1i_wq_size 64
l1i_pq_size 8
l1i_mshr_size 8
l1i_latency 1

l1d_size 32
l1d_set 64
l1d_way 8
l1d_rq_size 64
l1d_wq_size 64
l1d_pq_size 8
l1d_mshr_size 16
l1d_latency 4

l2c_size 256
l2c_set 512
l2c_way 8
l2c_rq_size 32
l2c_wq_size 32
l2c_pq_size 32
l2c_mshr_size 32
l2c_latency 10

llc_size 2048
llc_set 2048
llc_way 16
llc_rq_size 32
llc_wq_size 32
llc_pq_size 32
llc_mshr_size 64
llc_latency 20

dram_channel_width 8
dram_wq_size 64
dram_rq_size 64
tRP 15
tRCD 15
tCAS 12.5
dram_dbus_turn_around_time 30
dram_write_high_wm 56
dram_write_low_wm 48
min_dram_writes_per_switch 16
dram_mtps 150
dram_dbus_return_time 213


Heartbeat CPU  0 instructions:    1000001 cycles:     778754 heartbeat IPC: 1.28410 cumulative IPC: 1.28410 (Simulation time: 0 hr 0 min 3 sec) 
Heartbeat CPU  0 instructions:    2000002 cycles:    1557501 heartbeat IPC: 1.28412 cumulative IPC: 1.28411 (Simulation time: 0 hr 0 min 5 sec) 
Heartbeat CPU  0 instructions:    3000003 cycles:    2336056 heartbeat IPC: 1.28443 cumulative IPC: 1.28422 (Simulation time: 0 hr 0 min 8 sec) 
Heartbeat CPU  0 instructions:    4000000 cycles:    3114795 heartbeat IPC: 1.28412 cumulative IPC: 1.28419 (Simulation time: 0 hr 0 min 10 sec) 
Heartbeat CPU  0 instructions:    5000001 cycles:    3893568 heartbeat IPC: 1.28407 cumulative IPC: 1.28417 (Simulation time: 0 hr 0 min 13 sec) 
Heartbeat CPU  0 instructions:    6000002 cycles:    4672244 heartbeat IPC: 1.28423 cumulative IPC: 1.28418 (Simulation time: 0 hr 0 min 15 sec) 
Heartbeat CPU  0 instructions:    7000003 cycles:    5450883 heartbeat IPC: 1.28429 cumulative IPC: 1.28420 (Simulation time: 0 hr 0 min 18 sec) 
Heartbeat CPU  0 instructions:    8000000 cycles:    6229277 heartbeat IPC: 1.28469 cumulative IPC: 1.28426 (Simulation time: 0 hr 0 min 20 sec) 
Heartbeat CPU  0 instructions:    9000002 cycles:    7008043 heartbeat IPC: 1.28409 cumulative IPC: 1.28424 (Simulation time: 0 hr 0 min 23 sec) 
Heartbeat CPU  0 instructions:   10000003 cycles:    7786662 heartbeat IPC: 1.28433 cumulative IPC: 1.28425 (Simulation time: 0 hr 0 min 25 sec) 
Heartbeat CPU  0 instructions:   11000000 cycles:    8565137 heartbeat IPC: 1.28456 cumulative IPC: 1.28428 (Simulation time: 0 hr 0 min 28 sec) 
Heartbeat CPU  0 instructions:   12000000 cycles:    9343566 heartbeat IPC: 1.28464 cumulative IPC: 1.28431 (Simulation time: 0 hr 0 min 30 sec) 
Heartbeat CPU  0 instructions:   13000003 cycles:   10122411 heartbeat IPC: 1.28396 cumulative IPC: 1.28428 (Simulation time: 0 hr 0 min 33 sec) 
Heartbeat CPU  0 instructions:   14000000 cycles:   10901009 heartbeat IPC: 1.28436 cumulative IPC: 1.28428 (Simulation time: 0 hr 0 min 35 sec) 
Heartbeat CPU  0 instructions:   15000001 cycles:   11679607 heartbeat IPC: 1.28436 cumulative IPC: 1.28429 (Simulation time: 0 hr 0 min 38 sec) 
Heartbeat CPU  0 instructions:   16000000 cycles:   12458468 heartbeat IPC: 1.28392 cumulative IPC: 1.28427 (Simulation time: 0 hr 0 min 40 sec) 
Heartbeat CPU  0 instructions:   17000003 cycles:   13237088 heartbeat IPC: 1.28433 cumulative IPC: 1.28427 (Simulation time: 0 hr 0 min 43 sec) 
Heartbeat CPU  0 instructions:   18000000 cycles:   14015516 heartbeat IPC: 1.28464 cumulative IPC: 1.28429 (Simulation time: 0 hr 0 min 45 sec) 
Heartbeat CPU  0 instructions:   19000003 cycles:   14794178 heartbeat IPC: 1.28426 cumulative IPC: 1.28429 (Simulation time: 0 hr 0 min 48 sec) 
Heartbeat CPU  0 instructions:   20000000 cycles:   15572705 heartbeat IPC: 1.28447 cumulative IPC: 1.28430 (Simulation time: 0 hr 0 min 50 sec) 
Heartbeat CPU  0 instructions:   21000003 cycles:   16351628 heartbeat IPC: 1.28383 cumulative IPC: 1.28428 (Simulation time: 0 hr 0 min 53 sec) 
Heartbeat CPU  0 instructions:   22000000 cycles:   17130196 heartbeat IPC: 1.28441 cumulative IPC: 1.28428 (Simulation time: 0 hr 0 min 55 sec) 
Heartbeat CPU  0 instructions:   23000003 cycles:   17908904 heartbeat IPC: 1.28418 cumulative IPC: 1.28428 (Simulation time: 0 hr 0 min 57 sec) 
Heartbeat CPU  0 instructions:   24000000 cycles:   18687763 heartbeat IPC: 1.28393 cumulative IPC: 1.28426 (Simulation time: 0 hr 1 min 0 sec) 
Heartbeat CPU  0 instructions:   25000001 cycles:   19466108 heartbeat IPC: 1.28478 cumulative IPC: 1.28428 (Simulation time: 0 hr 1 min 2 sec) 
Heartbeat CPU  0 instructions:   26000001 cycles:   20244732 heartbeat IPC: 1.28432 cumulative IPC: 1.28428 (Simulation time: 0 hr 1 min 5 sec) 
Heartbeat CPU  0 instructions:   27000002 cycles:   21023373 heartbeat IPC: 1.28429 cumulative IPC: 1.28428 (Simulation time: 0 hr 1 min 7 sec) 
Heartbeat CPU  0 instructions:   28000000 cycles:   21801941 heartbeat IPC: 1.28441 cumulative IPC: 1.28429 (Simulation time: 0 hr 1 min 10 sec) 
Heartbeat CPU  0 instructions:   29000001 cycles:   22580500 heartbeat IPC: 1.28443 cumulative IPC: 1.28429 (Simulation time: 0 hr 1 min 12 sec) 
Heartbeat CPU  0 instructions:   30000002 cycles:   23359284 heartbeat IPC: 1.28405 cumulative IPC: 1.28429 (Simulation time: 0 hr 1 min 15 sec) 
Heartbeat CPU  0 instructions:   31000003 cycles:   24137921 heartbeat IPC: 1.28430 cumulative IPC: 1.28429 (Simulation time: 0 hr 1 min 17 sec) 
Heartbeat CPU  0 instructions:   32000000 cycles:   24916538 heartbeat IPC: 1.28432 cumulative IPC: 1.28429 (Simulation time: 0 hr 1 min 20 sec) 
Heartbeat CPU  0 instructions:   33000003 cycles:   25695194 heartbeat IPC: 1.28427 cumulative IPC: 1.28429 (Simulation time: 0 hr 1 min 22 sec) 
Heartbeat CPU  0 instructions:   34000002 cycles:   26464532 heartbeat IPC: 1.29982 cumulative IPC: 1.28474 (Simulation time: 0 hr 1 min 25 sec) 
Heartbeat CPU  0 instructions:   35000001 cycles:   27246702 heartbeat IPC: 1.27849 cumulative IPC: 1.28456 (Simulation time: 0 hr 1 min 27 sec) 
Heartbeat CPU  0 instructions:   36000000 cycles:   28027315 heartbeat IPC: 1.28104 cumulative IPC: 1.28446 (Simulation time: 0 hr 1 min 30 sec) 
Heartbeat CPU  0 instructions:   37000000 cycles:   28807984 heartbeat IPC: 1.28095 cumulative IPC: 1.28437 (Simulation time: 0 hr 1 min 32 sec) 
Heartbeat CPU  0 instructions:   38000001 cycles:   29588243 heartbeat IPC: 1.28163 cumulative IPC: 1.28429 (Simulation time: 0 hr 1 min 35 sec) 
Heartbeat CPU  0 instructions:   39000003 cycles:   30368762 heartbeat IPC: 1.28120 cumulative IPC: 1.28421 (Simulation time: 0 hr 1 min 37 sec) 
Heartbeat CPU  0 instructions:   40000000 cycles:   31149615 heartbeat IPC: 1.28065 cumulative IPC: 1.28412 (Simulation time: 0 hr 1 min 40 sec) 
Heartbeat CPU  0 instructions:   41000000 cycles:   31930545 heartbeat IPC: 1.28052 cumulative IPC: 1.28404 (Simulation time: 0 hr 1 min 42 sec) 
Heartbeat CPU  0 instructions:   42000002 cycles:   32710947 heartbeat IPC: 1.28139 cumulative IPC: 1.28397 (Simulation time: 0 hr 1 min 45 sec) 
Heartbeat CPU  0 instructions:   43000000 cycles:   33490994 heartbeat IPC: 1.28197 cumulative IPC: 1.28393 (Simulation time: 0 hr 1 min 47 sec) 
Heartbeat CPU  0 instructions:   44000000 cycles:   34270477 heartbeat IPC: 1.28290 cumulative IPC: 1.28390 (Simulation time: 0 hr 1 min 50 sec) 
Heartbeat CPU  0 instructions:   45000000 cycles:   35050172 heartbeat IPC: 1.28255 cumulative IPC: 1.28387 (Simulation time: 0 hr 1 min 52 sec) 
Heartbeat CPU  0 instructions:   46000002 cycles:   35829793 heartbeat IPC: 1.28268 cumulative IPC: 1.28385 (Simulation time: 0 hr 1 min 55 sec) 
Heartbeat CPU  0 instructions:   47000001 cycles:   36608793 heartbeat IPC: 1.28370 cumulative IPC: 1.28384 (Simulation time: 0 hr 1 min 57 sec) 
Heartbeat CPU  0 instructions:   48000000 cycles:   37387696 heartbeat IPC: 1.28386 cumulative IPC: 1.28384 (Simulation time: 0 hr 2 min 0 sec) 
Heartbeat CPU  0 instructions:   49000001 cycles:   38167617 heartbeat IPC: 1.28218 cumulative IPC: 1.28381 (Simulation time: 0 hr 2 min 2 sec) 
Heartbeat CPU  0 instructions:   50000002 cycles:   38947479 heartbeat IPC: 1.28228 cumulative IPC: 1.28378 (Simulation time: 0 hr 2 min 5 sec) 
Heartbeat CPU  0 instructions:   51000000 cycles:   39726400 heartbeat IPC: 1.28382 cumulative IPC: 1.28378 (Simulation time: 0 hr 2 min 7 sec) 
Heartbeat CPU  0 instructions:   52000000 cycles:   40505344 heartbeat IPC: 1.28379 cumulative IPC: 1.28378 (Simulation time: 0 hr 2 min 10 sec) 
Heartbeat CPU  0 instructions:   53000002 cycles:   41286151 heartbeat IPC: 1.28073 cumulative IPC: 1.28372 (Simulation time: 0 hr 2 min 12 sec) 
Heartbeat CPU  0 instructions:   54000000 cycles:   42066569 heartbeat IPC: 1.28136 cumulative IPC: 1.28368 (Simulation time: 0 hr 2 min 15 sec) 
Heartbeat CPU  0 instructions:   55000003 cycles:   42846529 heartbeat IPC: 1.28212 cumulative IPC: 1.28365 (Simulation time: 0 hr 2 min 17 sec) 
Heartbeat CPU  0 instructions:   56000000 cycles:   43626787 heartbeat IPC: 1.28162 cumulative IPC: 1.28361 (Simulation time: 0 hr 2 min 20 sec) 
Heartbeat CPU  0 instructions:   57000001 cycles:   44407928 heartbeat IPC: 1.28018 cumulative IPC: 1.28355 (Simulation time: 0 hr 2 min 22 sec) 
Heartbeat CPU  0 instructions:   58000000 cycles:   45188568 heartbeat IPC: 1.28100 cumulative IPC: 1.28351 (Simulation time: 0 hr 2 min 25 sec) 
Heartbeat CPU  0 instructions:   59000001 cycles:   45968892 heartbeat IPC: 1.28152 cumulative IPC: 1.28348 (Simulation time: 0 hr 2 min 27 sec) 
Heartbeat CPU  0 instructions:   60000000 cycles:   46749380 heartbeat IPC: 1.28125 cumulative IPC: 1.28344 (Simulation time: 0 hr 2 min 30 sec) 
Heartbeat CPU  0 instructions:   61000003 cycles:   47530417 heartbeat IPC: 1.28035 cumulative IPC: 1.28339 (Simulation time: 0 hr 2 min 32 sec) 
Heartbeat CPU  0 instructions:   62000002 cycles:   48309661 heartbeat IPC: 1.28329 cumulative IPC: 1.28339 (Simulation time: 0 hr 2 min 35 sec) 
Heartbeat CPU  0 instructions:   63000002 cycles:   49088968 heartbeat IPC: 1.28319 cumulative IPC: 1.28338 (Simulation time: 0 hr 2 min 37 sec) 
Heartbeat CPU  0 instructions:   64000000 cycles:   49868147 heartbeat IPC: 1.28340 cumulative IPC: 1.28338 (Simulation time: 0 hr 2 min 40 sec) 
Heartbeat CPU  0 instructions:   65000002 cycles:   50647651 heartbeat IPC: 1.28287 cumulative IPC: 1.28338 (Simulation time: 0 hr 2 min 42 sec) 
Heartbeat CPU  0 instructions:   66000001 cycles:   51426549 heartbeat IPC: 1.28386 cumulative IPC: 1.28338 (Simulation time: 0 hr 2 min 45 sec) 
Heartbeat CPU  0 instructions:   67000003 cycles:   52205572 heartbeat IPC: 1.28366 cumulative IPC: 1.28339 (Simulation time: 0 hr 2 min 47 sec) 
Heartbeat CPU  0 instructions:   68000000 cycles:   52985460 heartbeat IPC: 1.28223 cumulative IPC: 1.28337 (Simulation time: 0 hr 2 min 50 sec) 
Heartbeat CPU  0 instructions:   69000002 cycles:   53764866 heartbeat IPC: 1.28303 cumulative IPC: 1.28337 (Simulation time: 0 hr 2 min 52 sec) 
Heartbeat CPU  0 instructions:   70000001 cycles:   54544559 heartbeat IPC: 1.28255 cumulative IPC: 1.28335 (Simulation time: 0 hr 2 min 55 sec) 
Heartbeat CPU  0 instructions:   71000003 cycles:   55324534 heartbeat IPC: 1.28209 cumulative IPC: 1.28334 (Simulation time: 0 hr 2 min 57 sec) 
Heartbeat CPU  0 instructions:   72000000 cycles:   56104732 heartbeat IPC: 1.28172 cumulative IPC: 1.28331 (Simulation time: 0 hr 3 min 0 sec) 
Heartbeat CPU  0 instructions:   73000000 cycles:   56885901 heartbeat IPC: 1.28013 cumulative IPC: 1.28327 (Simulation time: 0 hr 3 min 2 sec) 
Heartbeat CPU  0 instructions:   74000002 cycles:   57666454 heartbeat IPC: 1.28115 cumulative IPC: 1.28324 (Simulation time: 0 hr 3 min 5 sec) 
Heartbeat CPU  0 instructions:   75000000 cycles:   58447639 heartbeat IPC: 1.28010 cumulative IPC: 1.28320 (Simulation time: 0 hr 3 min 7 sec) 
Heartbeat CPU  0 instructions:   76000000 cycles:   59228358 heartbeat IPC: 1.28087 cumulative IPC: 1.28317 (Simulation time: 0 hr 3 min 10 sec) 
Heartbeat CPU  0 instructions:   77000003 cycles:   60008386 heartbeat IPC: 1.28201 cumulative IPC: 1.28315 (Simulation time: 0 hr 3 min 12 sec) 
Heartbeat CPU  0 instructions:   78000001 cycles:   60788556 heartbeat IPC: 1.28177 cumulative IPC: 1.28314 (Simulation time: 0 hr 3 min 15 sec) 
Heartbeat CPU  0 instructions:   79000001 cycles:   61569871 heartbeat IPC: 1.27989 cumulative IPC: 1.28310 (Simulation time: 0 hr 3 min 17 sec) 
Heartbeat CPU  0 instructions:   80000000 cycles:   62350068 heartbeat IPC: 1.28173 cumulative IPC: 1.28308 (Simulation time: 0 hr 3 min 20 sec) 
Heartbeat CPU  0 instructions:   81000001 cycles:   63129032 heartbeat IPC: 1.28376 cumulative IPC: 1.28309 (Simulation time: 0 hr 3 min 22 sec) 
Heartbeat CPU  0 instructions:   82000002 cycles:   63907548 heartbeat IPC: 1.28450 cumulative IPC: 1.28310 (Simulation time: 0 hr 3 min 25 sec) 
Heartbeat CPU  0 instructions:   83000000 cycles:   64688759 heartbeat IPC: 1.28006 cumulative IPC: 1.28307 (Simulation time: 0 hr 3 min 27 sec) 
Heartbeat CPU  0 instructions:   84000000 cycles:   65467884 heartbeat IPC: 1.28349 cumulative IPC: 1.28307 (Simulation time: 0 hr 3 min 30 sec) 
Heartbeat CPU  0 instructions:   85000002 cycles:   66246778 heartbeat IPC: 1.28387 cumulative IPC: 1.28308 (Simulation time: 0 hr 3 min 32 sec) 
Heartbeat CPU  0 instructions:   86000001 cycles:   67025830 heartbeat IPC: 1.28361 cumulative IPC: 1.28309 (Simulation time: 0 hr 3 min 34 sec) 
Heartbeat CPU  0 instructions:   87000001 cycles:   67805097 heartbeat IPC: 1.28326 cumulative IPC: 1.28309 (Simulation time: 0 hr 3 min 37 sec) 
Heartbeat CPU  0 instructions:   88000000 cycles:   68584284 heartbeat IPC: 1.28339 cumulative IPC: 1.28309 (Simulation time: 0 hr 3 min 39 sec) 
Heartbeat CPU  0 instructions:   89000001 cycles:   69364437 heartbeat IPC: 1.28180 cumulative IPC: 1.28308 (Simulation time: 0 hr 3 min 42 sec) 
Heartbeat CPU  0 instructions:   90000003 cycles:   70144644 heartbeat IPC: 1.28171 cumulative IPC: 1.28306 (Simulation time: 0 hr 3 min 44 sec) 
Heartbeat CPU  0 instructions:   91000001 cycles:   70924934 heartbeat IPC: 1.28157 cumulative IPC: 1.28305 (Simulation time: 0 hr 3 min 47 sec) 
Heartbeat CPU  0 instructions:   92000000 cycles:   71705571 heartbeat IPC: 1.28100 cumulative IPC: 1.28302 (Simulation time: 0 hr 3 min 49 sec) 
Heartbeat CPU  0 instructions:   93000002 cycles:   72486064 heartbeat IPC: 1.28124 cumulative IPC: 1.28301 (Simulation time: 0 hr 3 min 52 sec) 
Heartbeat CPU  0 instructions:   94000000 cycles:   73266413 heartbeat IPC: 1.28148 cumulative IPC: 1.28299 (Simulation time: 0 hr 3 min 54 sec) 
Heartbeat CPU  0 instructions:   95000001 cycles:   74046483 heartbeat IPC: 1.28194 cumulative IPC: 1.28298 (Simulation time: 0 hr 3 min 57 sec) 
Heartbeat CPU  0 instructions:   96000000 cycles:   74826920 heartbeat IPC: 1.28133 cumulative IPC: 1.28296 (Simulation time: 0 hr 3 min 59 sec) 
Heartbeat CPU  0 instructions:   97000002 cycles:   75608183 heartbeat IPC: 1.27998 cumulative IPC: 1.28293 (Simulation time: 0 hr 4 min 2 sec) 
Heartbeat CPU  0 instructions:   98000001 cycles:   76387520 heartbeat IPC: 1.28314 cumulative IPC: 1.28293 (Simulation time: 0 hr 4 min 4 sec) 
Heartbeat CPU  0 instructions:   99000003 cycles:   77166582 heartbeat IPC: 1.28360 cumulative IPC: 1.28294 (Simulation time: 0 hr 4 min 7 sec) 
Heartbeat CPU  0 instructions:  100000000 cycles:   77945446 heartbeat IPC: 1.28392 cumulative IPC: 1.28295 (Simulation time: 0 hr 4 min 9 sec) 

Warmup complete CPU  0 instructions:  100000001 cycles:   77945447 (Simulation time: 0 hr 4 min 9 sec) 

Heartbeat CPU  0 instructions:  101000003 cycles:   80235867 heartbeat IPC: 0.43660 cumulative IPC: 0.43660 (Simulation time: 0 hr 4 min 13 sec) 
Heartbeat CPU  0 instructions:  102000000 cycles:   82587991 heartbeat IPC: 0.42515 cumulative IPC: 0.43080 (Simulation time: 0 hr 4 min 17 sec) 
Heartbeat CPU  0 instructions:  103000002 cycles:   85004661 heartbeat IPC: 0.41379 cumulative IPC: 0.42498 (Simulation time: 0 hr 4 min 20 sec) 
Heartbeat CPU  0 instructions:  104000000 cycles:   87469430 heartbeat IPC: 0.40572 cumulative IPC: 0.41999 (Simulation time: 0 hr 4 min 24 sec) 
Heartbeat CPU  0 instructions:  105000003 cycles:   89813267 heartbeat IPC: 0.42665 cumulative IPC: 0.42131 (Simulation time: 0 hr 4 min 28 sec) 
Heartbeat CPU  0 instructions:  106000002 cycles:   92223498 heartbeat IPC: 0.41490 cumulative IPC: 0.42023 (Simulation time: 0 hr 4 min 31 sec) 
Heartbeat CPU  0 instructions:  107000000 cycles:   94565677 heartbeat IPC: 0.42695 cumulative IPC: 0.42117 (Simulation time: 0 hr 4 min 35 sec) 
Heartbeat CPU  0 instructions:  108000000 cycles:   96943705 heartbeat IPC: 0.42052 cumulative IPC: 0.42109 (Simulation time: 0 hr 4 min 39 sec) 
Heartbeat CPU  0 instructions:  109000003 cycles:   99293025 heartbeat IPC: 0.42566 cumulative IPC: 0.42159 (Simulation time: 0 hr 4 min 42 sec) 
Heartbeat CPU  0 instructions:  110000001 cycles:  101669952 heartbeat IPC: 0.42071 cumulative IPC: 0.42151 (Simulation time: 0 hr 4 min 46 sec) 
Heartbeat CPU  0 instructions:  111000000 cycles:  104130673 heartbeat IPC: 0.40638 cumulative IPC: 0.42008 (Simulation time: 0 hr 4 min 50 sec) 
Heartbeat CPU  0 instructions:  112000000 cycles:  106444449 heartbeat IPC: 0.43219 cumulative IPC: 0.42107 (Simulation time: 0 hr 4 min 53 sec) 
Heartbeat CPU  0 instructions:  113000000 cycles:  108780567 heartbeat IPC: 0.42806 cumulative IPC: 0.42160 (Simulation time: 0 hr 4 min 57 sec) 
Heartbeat CPU  0 instructions:  114000002 cycles:  111170468 heartbeat IPC: 0.41843 cumulative IPC: 0.42137 (Simulation time: 0 hr 5 min 1 sec) 
Heartbeat CPU  0 instructions:  115000000 cycles:  113559727 heartbeat IPC: 0.41854 cumulative IPC: 0.42118 (Simulation time: 0 hr 5 min 4 sec) 
Heartbeat CPU  0 instructions:  116000000 cycles:  115892289 heartbeat IPC: 0.42871 cumulative IPC: 0.42164 (Simulation time: 0 hr 5 min 8 sec) 
Heartbeat CPU  0 instructions:  117000000 cycles:  118340065 heartbeat IPC: 0.40853 cumulative IPC: 0.42085 (Simulation time: 0 hr 5 min 12 sec) 
Heartbeat CPU  0 instructions:  118000003 cycles:  120793186 heartbeat IPC: 0.40765 cumulative IPC: 0.42009 (Simulation time: 0 hr 5 min 15 sec) 
Heartbeat CPU  0 instructions:  119000001 cycles:  123185162 heartbeat IPC: 0.41806 cumulative IPC: 0.41998 (Simulation time: 0 hr 5 min 19 sec) 
Heartbeat CPU  0 instructions:  120000000 cycles:  125488710 heartbeat IPC: 0.43411 cumulative IPC: 0.42067 (Simulation time: 0 hr 5 min 23 sec) 
Heartbeat CPU  0 instructions:  121000000 cycles:  127915200 heartbeat IPC: 0.41212 cumulative IPC: 0.42025 (Simulation time: 0 hr 5 min 26 sec) 
Heartbeat CPU  0 instructions:  122000002 cycles:  130358745 heartbeat IPC: 0.40924 cumulative IPC: 0.41974 (Simulation time: 0 hr 5 min 30 sec) 
Heartbeat CPU  0 instructions:  123000000 cycles:  132717692 heartbeat IPC: 0.42392 cumulative IPC: 0.41992 (Simulation time: 0 hr 5 min 34 sec) 
Heartbeat CPU  0 instructions:  124000000 cycles:  135186267 heartbeat IPC: 0.40509 cumulative IPC: 0.41928 (Simulation time: 0 hr 5 min 37 sec) 
Heartbeat CPU  0 instructions:  125000002 cycles:  137553340 heartbeat IPC: 0.42246 cumulative IPC: 0.41941 (Simulation time: 0 hr 5 min 41 sec) 
Heartbeat CPU  0 instructions:  126000000 cycles:  139890896 heartbeat IPC: 0.42780 cumulative IPC: 0.41972 (Simulation time: 0 hr 5 min 45 sec) 
Heartbeat CPU  0 instructions:  127000002 cycles:  142285708 heartbeat IPC: 0.41757 cumulative IPC: 0.41964 (Simulation time: 0 hr 5 min 48 sec) 
Heartbeat CPU  0 instructions:  128000000 cycles:  144711016 heartbeat IPC: 0.41232 cumulative IPC: 0.41938 (Simulation time: 0 hr 5 min 52 sec) 
Heartbeat CPU  0 instructions:  129000001 cycles:  147016736 heartbeat IPC: 0.43370 cumulative IPC: 0.41986 (Simulation time: 0 hr 5 min 55 sec) 
Heartbeat CPU  0 instructions:  130000003 cycles:  149383186 heartbeat IPC: 0.42257 cumulative IPC: 0.41995 (Simulation time: 0 hr 5 min 59 sec) 
Heartbeat CPU  0 instructions:  131000003 cycles:  151774377 heartbeat IPC: 0.41820 cumulative IPC: 0.41989 (Simulation time: 0 hr 6 min 3 sec) 
Heartbeat CPU  0 instructions:  132000000 cycles:  154132247 heartbeat IPC: 0.42411 cumulative IPC: 0.42002 (Simulation time: 0 hr 6 min 6 sec) 
Heartbeat CPU  0 instructions:  133000000 cycles:  156558090 heartbeat IPC: 0.41223 cumulative IPC: 0.41978 (Simulation time: 0 hr 6 min 10 sec) 
Heartbeat CPU  0 instructions:  134000002 cycles:  159658908 heartbeat IPC: 0.32250 cumulative IPC: 0.41609 (Simulation time: 0 hr 6 min 14 sec) 
Heartbeat CPU  0 instructions:  135000002 cycles:  162837377 heartbeat IPC: 0.31462 cumulative IPC: 0.41229 (Simulation time: 0 hr 6 min 18 sec) 
Heartbeat CPU  0 instructions:  136000000 cycles:  165702920 heartbeat IPC: 0.34897 cumulative IPC: 0.41022 (Simulation time: 0 hr 6 min 21 sec) 
Heartbeat CPU  0 instructions:  137000002 cycles:  168411337 heartbeat IPC: 0.36922 cumulative IPC: 0.40899 (Simulation time: 0 hr 6 min 25 sec) 
Heartbeat CPU  0 instructions:  138000003 cycles:  171010486 heartbeat IPC: 0.38474 cumulative IPC: 0.40832 (Simulation time: 0 hr 6 min 28 sec) 
Heartbeat CPU  0 instructions:  139000001 cycles:  173632217 heartbeat IPC: 0.38143 cumulative IPC: 0.40758 (Simulation time: 0 hr 6 min 32 sec) 
Heartbeat CPU  0 instructions:  140000000 cycles:  175928642 heartbeat IPC: 0.43546 cumulative IPC: 0.40823 (Simulation time: 0 hr 6 min 35 sec) 
Heartbeat CPU  0 instructions:  141000003 cycles:  178180125 heartbeat IPC: 0.44415 cumulative IPC: 0.40904 (Simulation time: 0 hr 6 min 38 sec) 
Heartbeat CPU  0 instructions:  142000003 cycles:  180363540 heartbeat IPC: 0.45800 cumulative IPC: 0.41008 (Simulation time: 0 hr 6 min 41 sec) 
Heartbeat CPU  0 instructions:  143000000 cycles:  182670079 heartbeat IPC: 0.43355 cumulative IPC: 0.41060 (Simulation time: 0 hr 6 min 45 sec) 
Heartbeat CPU  0 instructions:  144000000 cycles:  184860360 heartbeat IPC: 0.45656 cumulative IPC: 0.41154 (Simulation time: 0 hr 6 min 49 sec) 
Heartbeat CPU  0 instructions:  145000002 cycles:  187046797 heartbeat IPC: 0.45737 cumulative IPC: 0.41246 (Simulation time: 0 hr 6 min 52 sec) 
Heartbeat CPU  0 instructions:  146000000 cycles:  189429640 heartbeat IPC: 0.41967 cumulative IPC: 0.41261 (Simulation time: 0 hr 6 min 56 sec) 
Heartbeat CPU  0 instructions:  147000002 cycles:  191826745 heartbeat IPC: 0.41717 cumulative IPC: 0.41271 (Simulation time: 0 hr 6 min 59 sec) 
Heartbeat CPU  0 instructions:  148000000 cycles:  194191312 heartbeat IPC: 0.42291 cumulative IPC: 0.41292 (Simulation time: 0 hr 7 min 3 sec) 
Heartbeat CPU  0 instructions:  149000001 cycles:  196568431 heartbeat IPC: 0.42068 cumulative IPC: 0.41307 (Simulation time: 0 hr 7 min 7 sec) 
Heartbeat CPU  0 instructions:  150000003 cycles:  198940927 heartbeat IPC: 0.42150 cumulative IPC: 0.41324 (Simulation time: 0 hr 7 min 10 sec) 
Heartbeat CPU  0 instructions:  151000001 cycles:  201329822 heartbeat IPC: 0.41860 cumulative IPC: 0.41334 (Simulation time: 0 hr 7 min 14 sec) 
Heartbeat CPU  0 instructions:  152000000 cycles:  203748032 heartbeat IPC: 0.41353 cumulative IPC: 0.41335 (Simulation time: 0 hr 7 min 18 sec) 
Heartbeat CPU  0 instructions:  153000002 cycles:  206123081 heartbeat IPC: 0.42104 cumulative IPC: 0.41349 (Simulation time: 0 hr 7 min 21 sec) 
Heartbeat CPU  0 instructions:  154000000 cycles:  208542919 heartbeat IPC: 0.41325 cumulative IPC: 0.41348 (Simulation time: 0 hr 7 min 25 sec) 
Heartbeat CPU  0 instructions:  155000000 cycles:  210869131 heartbeat IPC: 0.42988 cumulative IPC: 0.41377 (Simulation time: 0 hr 7 min 29 sec) 
Heartbeat CPU  0 instructions:  156000000 cycles:  213181976 heartbeat IPC: 0.43237 cumulative IPC: 0.41409 (Simulation time: 0 hr 7 min 32 sec) 
Heartbeat CPU  0 instructions:  157000001 cycles:  215630910 heartbeat IPC: 0.40834 cumulative IPC: 0.41399 (Simulation time: 0 hr 7 min 36 sec) 
Heartbeat CPU  0 instructions:  158000003 cycles:  217999844 heartbeat IPC: 0.42213 cumulative IPC: 0.41412 (Simulation time: 0 hr 7 min 40 sec) 
Heartbeat CPU  0 instructions:  159000000 cycles:  220322929 heartbeat IPC: 0.43046 cumulative IPC: 0.41439 (Simulation time: 0 hr 7 min 43 sec) 
Heartbeat CPU  0 instructions:  160000000 cycles:  222615548 heartbeat IPC: 0.43618 cumulative IPC: 0.41474 (Simulation time: 0 hr 7 min 47 sec) 
Heartbeat CPU  0 instructions:  161000003 cycles:  225000418 heartbeat IPC: 0.41931 cumulative IPC: 0.41481 (Simulation time: 0 hr 7 min 50 sec) 
Heartbeat CPU  0 instructions:  162000003 cycles:  227409908 heartbeat IPC: 0.41503 cumulative IPC: 0.41481 (Simulation time: 0 hr 7 min 54 sec) 
Heartbeat CPU  0 instructions:  163000001 cycles:  229848934 heartbeat IPC: 0.41000 cumulative IPC: 0.41474 (Simulation time: 0 hr 7 min 58 sec) 
Heartbeat CPU  0 instructions:  164000000 cycles:  232239258 heartbeat IPC: 0.41835 cumulative IPC: 0.41479 (Simulation time: 0 hr 8 min 1 sec) 
Heartbeat CPU  0 instructions:  165000000 cycles:  234636519 heartbeat IPC: 0.41714 cumulative IPC: 0.41483 (Simulation time: 0 hr 8 min 5 sec) 
Heartbeat CPU  0 instructions:  166000000 cycles:  236959738 heartbeat IPC: 0.43044 cumulative IPC: 0.41506 (Simulation time: 0 hr 8 min 9 sec) 
Heartbeat CPU  0 instructions:  167000002 cycles:  239337033 heartbeat IPC: 0.42065 cumulative IPC: 0.41514 (Simulation time: 0 hr 8 min 12 sec) 
Heartbeat CPU  0 instructions:  168000000 cycles:  241768414 heartbeat IPC: 0.41129 cumulative IPC: 0.41508 (Simulation time: 0 hr 8 min 16 sec) 
Heartbeat CPU  0 instructions:  169000000 cycles:  244124135 heartbeat IPC: 0.42450 cumulative IPC: 0.41522 (Simulation time: 0 hr 8 min 20 sec) 
Heartbeat CPU  0 instructions:  170000003 cycles:  246597128 heartbeat IPC: 0.40437 cumulative IPC: 0.41506 (Simulation time: 0 hr 8 min 23 sec) 
Heartbeat CPU  0 instructions:  171000002 cycles:  249040649 heartbeat IPC: 0.40925 cumulative IPC: 0.41497 (Simulation time: 0 hr 8 min 27 sec) 
Heartbeat CPU  0 instructions:  172000000 cycles:  251388638 heartbeat IPC: 0.42590 cumulative IPC: 0.41512 (Simulation time: 0 hr 8 min 31 sec) 
Heartbeat CPU  0 instructions:  173000002 cycles:  253660897 heartbeat IPC: 0.44009 cumulative IPC: 0.41544 (Simulation time: 0 hr 8 min 34 sec) 
Heartbeat CPU  0 instructions:  174000000 cycles:  256131459 heartbeat IPC: 0.40477 cumulative IPC: 0.41530 (Simulation time: 0 hr 8 min 38 sec) 
Heartbeat CPU  0 instructions:  175000001 cycles:  258521960 heartbeat IPC: 0.41832 cumulative IPC: 0.41534 (Simulation time: 0 hr 8 min 42 sec) 
Heartbeat CPU  0 instructions:  176000000 cycles:  260914149 heartbeat IPC: 0.41803 cumulative IPC: 0.41537 (Simulation time: 0 hr 8 min 45 sec) 
Heartbeat CPU  0 instructions:  177000001 cycles:  263333522 heartbeat IPC: 0.41333 cumulative IPC: 0.41534 (Simulation time: 0 hr 8 min 49 sec) 
Heartbeat CPU  0 instructions:  178000000 cycles:  265713429 heartbeat IPC: 0.42018 cumulative IPC: 0.41541 (Simulation time: 0 hr 8 min 53 sec) 
Heartbeat CPU  0 instructions:  179000002 cycles:  268053394 heartbeat IPC: 0.42736 cumulative IPC: 0.41555 (Simulation time: 0 hr 8 min 57 sec) 
Heartbeat CPU  0 instructions:  180000000 cycles:  270487942 heartbeat IPC: 0.41075 cumulative IPC: 0.41549 (Simulation time: 0 hr 9 min 0 sec) 
Heartbeat CPU  0 instructions:  181000002 cycles:  272812900 heartbeat IPC: 0.43012 cumulative IPC: 0.41567 (Simulation time: 0 hr 9 min 4 sec) 
Heartbeat CPU  0 instructions:  182000003 cycles:  275207928 heartbeat IPC: 0.41753 cumulative IPC: 0.41569 (Simulation time: 0 hr 9 min 8 sec) 
Heartbeat CPU  0 instructions:  183000001 cycles:  277603566 heartbeat IPC: 0.41742 cumulative IPC: 0.41571 (Simulation time: 0 hr 9 min 11 sec) 
Heartbeat CPU  0 instructions:  184000000 cycles:  279960038 heartbeat IPC: 0.42436 cumulative IPC: 0.41581 (Simulation time: 0 hr 9 min 15 sec) 
Heartbeat CPU  0 instructions:  185000003 cycles:  282373331 heartbeat IPC: 0.41437 cumulative IPC: 0.41579 (Simulation time: 0 hr 9 min 19 sec) 
Heartbeat CPU  0 instructions:  186000000 cycles:  284771218 heartbeat IPC: 0.41703 cumulative IPC: 0.41581 (Simulation time: 0 hr 9 min 22 sec) 
Heartbeat CPU  0 instructions:  187000000 cycles:  287156940 heartbeat IPC: 0.41916 cumulative IPC: 0.41585 (Simulation time: 0 hr 9 min 26 sec) 
Heartbeat CPU  0 instructions:  188000000 cycles:  289536550 heartbeat IPC: 0.42024 cumulative IPC: 0.41590 (Simulation time: 0 hr 9 min 30 sec) 
Heartbeat CPU  0 instructions:  189000001 cycles:  291939835 heartbeat IPC: 0.41610 cumulative IPC: 0.41590 (Simulation time: 0 hr 9 min 33 sec) 
Heartbeat CPU  0 instructions:  190000003 cycles:  294266036 heartbeat IPC: 0.42989 cumulative IPC: 0.41605 (Simulation time: 0 hr 9 min 37 sec) 
Heartbeat CPU  0 instructions:  191000002 cycles:  296664270 heartbeat IPC: 0.41697 cumulative IPC: 0.41606 (Simulation time: 0 hr 9 min 41 sec) 
Heartbeat CPU  0 instructions:  192000000 cycles:  299027357 heartbeat IPC: 0.42317 cumulative IPC: 0.41614 (Simulation time: 0 hr 9 min 44 sec) 
Heartbeat CPU  0 instructions:  193000002 cycles:  301460156 heartbeat IPC: 0.41105 cumulative IPC: 0.41608 (Simulation time: 0 hr 9 min 48 sec) 
Heartbeat CPU  0 instructions:  194000003 cycles:  303904363 heartbeat IPC: 0.40913 cumulative IPC: 0.41600 (Simulation time: 0 hr 9 min 52 sec) 
Heartbeat CPU  0 instructions:  195000001 cycles:  306186977 heartbeat IPC: 0.43809 cumulative IPC: 0.41623 (Simulation time: 0 hr 9 min 55 sec) 
Heartbeat CPU  0 instructions:  196000000 cycles:  308492312 heartbeat IPC: 0.43378 cumulative IPC: 0.41640 (Simulation time: 0 hr 9 min 59 sec) 
Heartbeat CPU  0 instructions:  197000001 cycles:  310981983 heartbeat IPC: 0.40166 cumulative IPC: 0.41624 (Simulation time: 0 hr 10 min 3 sec) 
Heartbeat CPU  0 instructions:  198000000 cycles:  313419965 heartbeat IPC: 0.41017 cumulative IPC: 0.41618 (Simulation time: 0 hr 10 min 6 sec) 
Heartbeat CPU  0 instructions:  199000002 cycles:  315843358 heartbeat IPC: 0.41265 cumulative IPC: 0.41614 (Simulation time: 0 hr 10 min 10 sec) 
Heartbeat CPU  0 instructions:  200000000 cycles:  318221998 heartbeat IPC: 0.42041 cumulative IPC: 0.41619 (Simulation time: 0 hr 10 min 14 sec) 
Heartbeat CPU  0 instructions:  201000001 cycles:  320563285 heartbeat IPC: 0.42712 cumulative IPC: 0.41629 (Simulation time: 0 hr 10 min 18 sec) 
Heartbeat CPU  0 instructions:  202000003 cycles:  322918847 heartbeat IPC: 0.42453 cumulative IPC: 0.41637 (Simulation time: 0 hr 10 min 21 sec) 
Heartbeat CPU  0 instructions:  203000001 cycles:  325288583 heartbeat IPC: 0.42199 cumulative IPC: 0.41643 (Simulation time: 0 hr 10 min 25 sec) 
Heartbeat CPU  0 instructions:  204000000 cycles:  327722874 heartbeat IPC: 0.41080 cumulative IPC: 0.41637 (Simulation time: 0 hr 10 min 29 sec) 
Heartbeat CPU  0 instructions:  205000001 cycles:  330096500 heartbeat IPC: 0.42130 cumulative IPC: 0.41642 (Simulation time: 0 hr 10 min 32 sec) 
Heartbeat CPU  0 instructions:  206000000 cycles:  332524813 heartbeat IPC: 0.41181 cumulative IPC: 0.41637 (Simulation time: 0 hr 10 min 36 sec) 
Heartbeat CPU  0 instructions:  207000001 cycles:  334814883 heartbeat IPC: 0.43667 cumulative IPC: 0.41655 (Simulation time: 0 hr 10 min 40 sec) 
Heartbeat CPU  0 instructions:  208000000 cycles:  337098917 heartbeat IPC: 0.43782 cumulative IPC: 0.41674 (Simulation time: 0 hr 10 min 43 sec) 
Heartbeat CPU  0 instructions:  209000001 cycles:  339430171 heartbeat IPC: 0.42895 cumulative IPC: 0.41685 (Simulation time: 0 hr 10 min 47 sec) 
Heartbeat CPU  0 instructions:  210000000 cycles:  341860013 heartbeat IPC: 0.41155 cumulative IPC: 0.41680 (Simulation time: 0 hr 10 min 50 sec) 
Heartbeat CPU  0 instructions:  211000002 cycles:  344359177 heartbeat IPC: 0.40013 cumulative IPC: 0.41665 (Simulation time: 0 hr 10 min 54 sec) 
Heartbeat CPU  0 instructions:  212000000 cycles:  346778030 heartbeat IPC: 0.41342 cumulative IPC: 0.41662 (Simulation time: 0 hr 10 min 58 sec) 
Heartbeat CPU  0 instructions:  213000000 cycles:  349128936 heartbeat IPC: 0.42537 cumulative IPC: 0.41669 (Simulation time: 0 hr 11 min 2 sec) 
Heartbeat CPU  0 instructions:  214000003 cycles:  351500528 heartbeat IPC: 0.42166 cumulative IPC: 0.41674 (Simulation time: 0 hr 11 min 5 sec) 
Heartbeat CPU  0 instructions:  215000001 cycles:  353918155 heartbeat IPC: 0.41363 cumulative IPC: 0.41671 (Simulation time: 0 hr 11 min 9 sec) 
Heartbeat CPU  0 instructions:  216000000 cycles:  356290958 heartbeat IPC: 0.42144 cumulative IPC: 0.41675 (Simulation time: 0 hr 11 min 12 sec) 
Heartbeat CPU  0 instructions:  217000003 cycles:  358661242 heartbeat IPC: 0.42189 cumulative IPC: 0.41679 (Simulation time: 0 hr 11 min 16 sec) 
Heartbeat CPU  0 instructions:  218000001 cycles:  361045862 heartbeat IPC: 0.41935 cumulative IPC: 0.41681 (Simulation time: 0 hr 11 min 20 sec) 
Heartbeat CPU  0 instructions:  219000002 cycles:  363444039 heartbeat IPC: 0.41698 cumulative IPC: 0.41681 (Simulation time: 0 hr 11 min 24 sec) 
Heartbeat CPU  0 instructions:  220000000 cycles:  365848878 heartbeat IPC: 0.41583 cumulative IPC: 0.41681 (Simulation time: 0 hr 11 min 27 sec) 
Heartbeat CPU  0 instructions:  221000001 cycles:  368296103 heartbeat IPC: 0.40863 cumulative IPC: 0.41674 (Simulation time: 0 hr 11 min 31 sec) 
Heartbeat CPU  0 instructions:  222000003 cycles:  370641680 heartbeat IPC: 0.42634 cumulative IPC: 0.41681 (Simulation time: 0 hr 11 min 35 sec) 
Heartbeat CPU  0 instructions:  223000001 cycles:  372990534 heartbeat IPC: 0.42574 cumulative IPC: 0.41689 (Simulation time: 0 hr 11 min 38 sec) 
Heartbeat CPU  0 instructions:  224000000 cycles:  375406818 heartbeat IPC: 0.41386 cumulative IPC: 0.41686 (Simulation time: 0 hr 11 min 42 sec) 
Heartbeat CPU  0 instructions:  225000002 cycles:  377759862 heartbeat IPC: 0.42498 cumulative IPC: 0.41692 (Simulation time: 0 hr 11 min 45 sec) 
Heartbeat CPU  0 instructions:  226000000 cycles:  380091308 heartbeat IPC: 0.42892 cumulative IPC: 0.41702 (Simulation time: 0 hr 11 min 49 sec) 
Heartbeat CPU  0 instructions:  227000001 cycles:  382364794 heartbeat IPC: 0.43985 cumulative IPC: 0.41719 (Simulation time: 0 hr 11 min 53 sec) 
Heartbeat CPU  0 instructions:  228000000 cycles:  384787275 heartbeat IPC: 0.41280 cumulative IPC: 0.41715 (Simulation time: 0 hr 11 min 56 sec) 
Heartbeat CPU  0 instructions:  229000001 cycles:  387180924 heartbeat IPC: 0.41777 cumulative IPC: 0.41716 (Simulation time: 0 hr 12 min 0 sec) 
Heartbeat CPU  0 instructions:  230000002 cycles:  389589703 heartbeat IPC: 0.41515 cumulative IPC: 0.41714 (Simulation time: 0 hr 12 min 4 sec) 
Heartbeat CPU  0 instructions:  231000003 cycles:  392002509 heartbeat IPC: 0.41446 cumulative IPC: 0.41712 (Simulation time: 0 hr 12 min 7 sec) 
Heartbeat CPU  0 instructions:  232000000 cycles:  394419559 heartbeat IPC: 0.41373 cumulative IPC: 0.41710 (Simulation time: 0 hr 12 min 11 sec) 
Heartbeat CPU  0 instructions:  233000001 cycles:  396806805 heartbeat IPC: 0.41889 cumulative IPC: 0.41711 (Simulation time: 0 hr 12 min 15 sec) 
Heartbeat CPU  0 instructions:  234000003 cycles:  399233527 heartbeat IPC: 0.41208 cumulative IPC: 0.41707 (Simulation time: 0 hr 12 min 18 sec) 
Heartbeat CPU  0 instructions:  235000001 cycles:  401561813 heartbeat IPC: 0.42950 cumulative IPC: 0.41716 (Simulation time: 0 hr 12 min 22 sec) 
Heartbeat CPU  0 instructions:  236000000 cycles:  403868539 heartbeat IPC: 0.43351 cumulative IPC: 0.41728 (Simulation time: 0 hr 12 min 26 sec) 
Heartbeat CPU  0 instructions:  237000001 cycles:  406277519 heartbeat IPC: 0.41511 cumulative IPC: 0.41726 (Simulation time: 0 hr 12 min 29 sec) 
Heartbeat CPU  0 instructions:  238000002 cycles:  408680820 heartbeat IPC: 0.41609 cumulative IPC: 0.41725 (Simulation time: 0 hr 12 min 33 sec) 
Heartbeat CPU  0 instructions:  239000002 cycles:  411042764 heartbeat IPC: 0.42338 cumulative IPC: 0.41730 (Simulation time: 0 hr 12 min 37 sec) 
Heartbeat CPU  0 instructions:  240000000 cycles:  413366460 heartbeat IPC: 0.43035 cumulative IPC: 0.41739 (Simulation time: 0 hr 12 min 40 sec) 
Heartbeat CPU  0 instructions:  241000001 cycles:  415702948 heartbeat IPC: 0.42799 cumulative IPC: 0.41746 (Simulation time: 0 hr 12 min 44 sec) 
Heartbeat CPU  0 instructions:  242000000 cycles:  418103039 heartbeat IPC: 0.41665 cumulative IPC: 0.41745 (Simulation time: 0 hr 12 min 48 sec) 
Heartbeat CPU  0 instructions:  243000002 cycles:  420539360 heartbeat IPC: 0.41046 cumulative IPC: 0.41740 (Simulation time: 0 hr 12 min 51 sec) 
Heartbeat CPU  0 instructions:  244000000 cycles:  423024401 heartbeat IPC: 0.40241 cumulative IPC: 0.41730 (Simulation time: 0 hr 12 min 55 sec) 
Heartbeat CPU  0 instructions:  245000000 cycles:  425425667 heartbeat IPC: 0.41645 cumulative IPC: 0.41729 (Simulation time: 0 hr 12 min 59 sec) 
Heartbeat CPU  0 instructions:  246000003 cycles:  427777995 heartbeat IPC: 0.42511 cumulative IPC: 0.41734 (Simulation time: 0 hr 13 min 2 sec) 
Heartbeat CPU  0 instructions:  247000001 cycles:  430057663 heartbeat IPC: 0.43866 cumulative IPC: 0.41748 (Simulation time: 0 hr 13 min 6 sec) 
Heartbeat CPU  0 instructions:  248000000 cycles:  432429671 heartbeat IPC: 0.42158 cumulative IPC: 0.41751 (Simulation time: 0 hr 13 min 9 sec) 
Heartbeat CPU  0 instructions:  249000001 cycles:  434896899 heartbeat IPC: 0.40531 cumulative IPC: 0.41742 (Simulation time: 0 hr 13 min 13 sec) 
Heartbeat CPU  0 instructions:  250000001 cycles:  437348401 heartbeat IPC: 0.40791 cumulative IPC: 0.41736 (Simulation time: 0 hr 13 min 17 sec) 
Heartbeat CPU  0 instructions:  251000001 cycles:  443010694 heartbeat IPC: 0.17661 cumulative IPC: 0.41362 (Simulation time: 0 hr 13 min 21 sec) 
Heartbeat CPU  0 instructions:  252000000 cycles:  444730270 heartbeat IPC: 0.58154 cumulative IPC: 0.41441 (Simulation time: 0 hr 13 min 24 sec) 
Heartbeat CPU  0 instructions:  253000000 cycles:  446297349 heartbeat IPC: 0.63813 cumulative IPC: 0.41536 (Simulation time: 0 hr 13 min 27 sec) 
Heartbeat CPU  0 instructions:  254000003 cycles:  447754216 heartbeat IPC: 0.68641 cumulative IPC: 0.41643 (Simulation time: 0 hr 13 min 29 sec) 
Heartbeat CPU  0 instructions:  255000002 cycles:  449208639 heartbeat IPC: 0.68756 cumulative IPC: 0.41749 (Simulation time: 0 hr 13 min 31 sec) 
Heartbeat CPU  0 instructions:  256000000 cycles:  470298764 heartbeat IPC: 0.04742 cumulative IPC: 0.39760 (Simulation time: 0 hr 13 min 42 sec) 
Heartbeat CPU  0 instructions:  257000000 cycles:  472012294 heartbeat IPC: 0.58359 cumulative IPC: 0.39841 (Simulation time: 0 hr 13 min 45 sec) 
Heartbeat CPU  0 instructions:  258000001 cycles:  473567579 heartbeat IPC: 0.64297 cumulative IPC: 0.39937 (Simulation time: 0 hr 13 min 48 sec) 
Heartbeat CPU  0 instructions:  259000002 cycles:  475026377 heartbeat IPC: 0.68550 cumulative IPC: 0.40042 (Simulation time: 0 hr 13 min 50 sec) 
Heartbeat CPU  0 instructions:  260000000 cycles:  476482055 heartbeat IPC: 0.68696 cumulative IPC: 0.40147 (Simulation time: 0 hr 13 min 52 sec) 
Heartbeat CPU  0 instructions:  261000000 cycles:  502261097 heartbeat IPC: 0.03879 cumulative IPC: 0.37943 (Simulation time: 0 hr 14 min 6 sec) 
Heartbeat CPU  0 instructions:  262000003 cycles:  503979079 heartbeat IPC: 0.58208 cumulative IPC: 0.38025 (Simulation time: 0 hr 14 min 9 sec) 
Heartbeat CPU  0 instructions:  263000001 cycles:  505546390 heartbeat IPC: 0.63803 cumulative IPC: 0.38120 (Simulation time: 0 hr 14 min 11 sec) 
Heartbeat CPU  0 instructions:  264000000 cycles:  507005482 heartbeat IPC: 0.68536 cumulative IPC: 0.38223 (Simulation time: 0 hr 14 min 14 sec) 
Heartbeat CPU  0 instructions:  265000001 cycles:  508461505 heartbeat IPC: 0.68680 cumulative IPC: 0.38326 (Simulation time: 0 hr 14 min 16 sec) 
Heartbeat CPU  0 instructions:  266000001 cycles:  533515800 heartbeat IPC: 0.03991 cumulative IPC: 0.36438 (Simulation time: 0 hr 14 min 29 sec) 
Heartbeat CPU  0 instructions:  267000003 cycles:  535203775 heartbeat IPC: 0.59243 cumulative IPC: 0.36522 (Simulation time: 0 hr 14 min 32 sec) 
Heartbeat CPU  0 instructions:  268000000 cycles:  536773197 heartbeat IPC: 0.63718 cumulative IPC: 0.36615 (Simulation time: 0 hr 14 min 34 sec) 
Heartbeat CPU  0 instructions:  269000002 cycles:  538229156 heartbeat IPC: 0.68683 cumulative IPC: 0.36716 (Simulation time: 0 hr 14 min 37 sec) 
Heartbeat CPU  0 instructions:  270000003 cycles:  539682723 heartbeat IPC: 0.68796 cumulative IPC: 0.36817 (Simulation time: 0 hr 14 min 39 sec) 
Heartbeat CPU  0 instructions:  271000000 cycles:  564991487 heartbeat IPC: 0.03951 cumulative IPC: 0.35110 (Simulation time: 0 hr 14 min 53 sec) 
Heartbeat CPU  0 instructions:  272000000 cycles:  566686092 heartbeat IPC: 0.59011 cumulative IPC: 0.35192 (Simulation time: 0 hr 14 min 55 sec) 
Heartbeat CPU  0 instructions:  273000000 cycles:  568259317 heartbeat IPC: 0.63564 cumulative IPC: 0.35284 (Simulation time: 0 hr 14 min 58 sec) 
Heartbeat CPU  0 instructions:  274000001 cycles:  569716706 heartbeat IPC: 0.68616 cumulative IPC: 0.35382 (Simulation time: 0 hr 15 min 0 sec) 
Heartbeat CPU  0 instructions:  275000000 cycles:  571171466 heartbeat IPC: 0.68740 cumulative IPC: 0.35481 (Simulation time: 0 hr 15 min 3 sec) 
Heartbeat CPU  0 instructions:  276000000 cycles:  575763665 heartbeat IPC: 0.21776 cumulative IPC: 0.35354 (Simulation time: 0 hr 15 min 6 sec) 
Heartbeat CPU  0 instructions:  277000000 cycles:  577421087 heartbeat IPC: 0.60335 cumulative IPC: 0.35437 (Simulation time: 0 hr 15 min 9 sec) 
Heartbeat CPU  0 instructions:  278000000 cycles:  578991539 heartbeat IPC: 0.63676 cumulative IPC: 0.35526 (Simulation time: 0 hr 15 min 11 sec) 
Heartbeat CPU  0 instructions:  279000000 cycles:  580446188 heartbeat IPC: 0.68745 cumulative IPC: 0.35622 (Simulation time: 0 hr 15 min 13 sec) 
Heartbeat CPU  0 instructions:  280000000 cycles:  581899269 heartbeat IPC: 0.68819 cumulative IPC: 0.35718 (Simulation time: 0 hr 15 min 16 sec) 
Heartbeat CPU  0 instructions:  281000000 cycles:  586068558 heartbeat IPC: 0.23985 cumulative IPC: 0.35621 (Simulation time: 0 hr 15 min 19 sec) 
Heartbeat CPU  0 instructions:  282000000 cycles:  587732154 heartbeat IPC: 0.60111 cumulative IPC: 0.35701 (Simulation time: 0 hr 15 min 22 sec) 
Heartbeat CPU  0 instructions:  283000001 cycles:  589304116 heartbeat IPC: 0.63615 cumulative IPC: 0.35787 (Simulation time: 0 hr 15 min 24 sec) 
Heartbeat CPU  0 instructions:  284000000 cycles:  590757824 heartbeat IPC: 0.68790 cumulative IPC: 0.35881 (Simulation time: 0 hr 15 min 27 sec) 
Heartbeat CPU  0 instructions:  285000000 cycles:  592211034 heartbeat IPC: 0.68813 cumulative IPC: 0.35974 (Simulation time: 0 hr 15 min 29 sec) 
Heartbeat CPU  0 instructions:  286000002 cycles:  595888049 heartbeat IPC: 0.27196 cumulative IPC: 0.35911 (Simulation time: 0 hr 15 min 32 sec) 
Heartbeat CPU  0 instructions:  287000000 cycles:  597559143 heartbeat IPC: 0.59841 cumulative IPC: 0.35988 (Simulation time: 0 hr 15 min 35 sec) 
Heartbeat CPU  0 instructions:  288000000 cycles:  599122598 heartbeat IPC: 0.63961 cumulative IPC: 0.36072 (Simulation time: 0 hr 15 min 37 sec) 
Heartbeat CPU  0 instructions:  289000001 cycles:  600577426 heartbeat IPC: 0.68737 cumulative IPC: 0.36163 (Simulation time: 0 hr 15 min 40 sec) 
Heartbeat CPU  0 instructions:  290000001 cycles:  602031690 heartbeat IPC: 0.68763 cumulative IPC: 0.36254 (Simulation time: 0 hr 15 min 42 sec) 
Heartbeat CPU  0 instructions:  291000001 cycles:  605587069 heartbeat IPC: 0.28126 cumulative IPC: 0.36199 (Simulation time: 0 hr 15 min 45 sec) 
Heartbeat CPU  0 instructions:  292000000 cycles:  607220187 heartbeat IPC: 0.61233 cumulative IPC: 0.36276 (Simulation time: 0 hr 15 min 47 sec) 
Heartbeat CPU  0 instructions:  293000001 cycles:  608934774 heartbeat IPC: 0.58323 cumulative IPC: 0.36347 (Simulation time: 0 hr 15 min 50 sec) 
Heartbeat CPU  0 instructions:  294000003 cycles:  610649107 heartbeat IPC: 0.58332 cumulative IPC: 0.36418 (Simulation time: 0 hr 15 min 53 sec) 
Heartbeat CPU  0 instructions:  295000003 cycles:  613914188 heartbeat IPC: 0.30627 cumulative IPC: 0.36383 (Simulation time: 0 hr 15 min 56 sec) 
Heartbeat CPU  0 instructions:  296000000 cycles:  615789449 heartbeat IPC: 0.53326 cumulative IPC: 0.36442 (Simulation time: 0 hr 15 min 58 sec) 
Heartbeat CPU  0 instructions:  297000001 cycles:  617506989 heartbeat IPC: 0.58223 cumulative IPC: 0.36511 (Simulation time: 0 hr 16 min 1 sec) 
Heartbeat CPU  0 instructions:  298000002 cycles:  619224666 heartbeat IPC: 0.58218 cumulative IPC: 0.36580 (Simulation time: 0 hr 16 min 3 sec) 
Heartbeat CPU  0 instructions:  299000002 cycles:  621636589 heartbeat IPC: 0.41461 cumulative IPC: 0.36602 (Simulation time: 0 hr 16 min 6 sec) 
Heartbeat CPU  0 instructions:  300000000 cycles:  624253392 heartbeat IPC: 0.38214 cumulative IPC: 0.36609 (Simulation time: 0 hr 16 min 9 sec) 
Heartbeat CPU  0 instructions:  301000000 cycles:  625706092 heartbeat IPC: 0.68837 cumulative IPC: 0.36695 (Simulation time: 0 hr 16 min 11 sec) 
Heartbeat CPU  0 instructions:  302000001 cycles:  627158746 heartbeat IPC: 0.68840 cumulative IPC: 0.36780 (Simulation time: 0 hr 16 min 14 sec) 
Heartbeat CPU  0 instructions:  303000000 cycles:  628611472 heartbeat IPC: 0.68836 cumulative IPC: 0.36864 (Simulation time: 0 hr 16 min 16 sec) 
Heartbeat CPU  0 instructions:  304000000 cycles:  630064038 heartbeat IPC: 0.68844 cumulative IPC: 0.36949 (Simulation time: 0 hr 16 min 18 sec) 
Heartbeat CPU  0 instructions:  305000003 cycles:  633556234 heartbeat IPC: 0.28635 cumulative IPC: 0.36896 (Simulation time: 0 hr 16 min 21 sec) 
Heartbeat CPU  0 instructions:  306000001 cycles:  634904379 heartbeat IPC: 0.74176 cumulative IPC: 0.36987 (Simulation time: 0 hr 16 min 24 sec) 
Heartbeat CPU  0 instructions:  307000001 cycles:  636358493 heartbeat IPC: 0.68770 cumulative IPC: 0.37069 (Simulation time: 0 hr 16 min 26 sec) 
Heartbeat CPU  0 instructions:  308000000 cycles:  637812621 heartbeat IPC: 0.68770 cumulative IPC: 0.37152 (Simulation time: 0 hr 16 min 28 sec) 
Heartbeat CPU  0 instructions:  309000003 cycles:  639266762 heartbeat IPC: 0.68769 cumulative IPC: 0.37234 (Simulation time: 0 hr 16 min 31 sec) 
Heartbeat CPU  0 instructions:  310000002 cycles:  641850662 heartbeat IPC: 0.38701 cumulative IPC: 0.37240 (Simulation time: 0 hr 16 min 34 sec) 
Heartbeat CPU  0 instructions:  311000000 cycles:  653566727 heartbeat IPC: 0.08535 cumulative IPC: 0.36656 (Simulation time: 0 hr 16 min 41 sec) 
Heartbeat CPU  0 instructions:  312000000 cycles:  661061191 heartbeat IPC: 0.13343 cumulative IPC: 0.36356 (Simulation time: 0 hr 16 min 47 sec) 
Heartbeat CPU  0 instructions:  313000002 cycles:  667958754 heartbeat IPC: 0.14498 cumulative IPC: 0.36101 (Simulation time: 0 hr 16 min 52 sec) 
Heartbeat CPU  0 instructions:  314000002 cycles:  674987862 heartbeat IPC: 0.14227 cumulative IPC: 0.35843 (Simulation time: 0 hr 16 min 57 sec) 
Heartbeat CPU  0 instructions:  315000001 cycles:  681400000 heartbeat IPC: 0.15595 cumulative IPC: 0.35628 (Simulation time: 0 hr 17 min 2 sec) 
Heartbeat CPU  0 instructions:  316000000 cycles:  687898532 heartbeat IPC: 0.15388 cumulative IPC: 0.35413 (Simulation time: 0 hr 17 min 7 sec) 
Heartbeat CPU  0 instructions:  317000002 cycles:  694170837 heartbeat IPC: 0.15943 cumulative IPC: 0.35214 (Simulation time: 0 hr 17 min 12 sec) 
Heartbeat CPU  0 instructions:  318000001 cycles:  700409410 heartbeat IPC: 0.16029 cumulative IPC: 0.35022 (Simulation time: 0 hr 17 min 17 sec) 
Heartbeat CPU  0 instructions:  319000002 cycles:  706850290 heartbeat IPC: 0.15526 cumulative IPC: 0.34822 (Simulation time: 0 hr 17 min 22 sec) 
Heartbeat CPU  0 instructions:  320000000 cycles:  713642028 heartbeat IPC: 0.14724 cumulative IPC: 0.34608 (Simulation time: 0 hr 17 min 27 sec) 
Heartbeat CPU  0 instructions:  321000001 cycles:  719960631 heartbeat IPC: 0.15826 cumulative IPC: 0.34423 (Simulation time: 0 hr 17 min 32 sec) 
Heartbeat CPU  0 instructions:  322000000 cycles:  726251302 heartbeat IPC: 0.15897 cumulative IPC: 0.34243 (Simulation time: 0 hr 17 min 37 sec) 
Heartbeat CPU  0 instructions:  323000001 cycles:  732833729 heartbeat IPC: 0.15192 cumulative IPC: 0.34052 (Simulation time: 0 hr 17 min 42 sec) 
Heartbeat CPU  0 instructions:  324000000 cycles:  739000655 heartbeat IPC: 0.16216 cumulative IPC: 0.33885 (Simulation time: 0 hr 17 min 47 sec) 
Heartbeat CPU  0 instructions:  325000003 cycles:  745363921 heartbeat IPC: 0.15715 cumulative IPC: 0.33712 (Simulation time: 0 hr 17 min 52 sec) 
Heartbeat CPU  0 instructions:  326000000 cycles:  751529807 heartbeat IPC: 0.16218 cumulative IPC: 0.33552 (Simulation time: 0 hr 17 min 57 sec) 
Heartbeat CPU  0 instructions:  327000003 cycles:  758100119 heartbeat IPC: 0.15220 cumulative IPC: 0.33375 (Simulation time: 0 hr 18 min 2 sec) 
Heartbeat CPU  0 instructions:  328000000 cycles:  764473597 heartbeat IPC: 0.15690 cumulative IPC: 0.33211 (Simulation time: 0 hr 18 min 7 sec) 
Heartbeat CPU  0 instructions:  329000001 cycles:  770716265 heartbeat IPC: 0.16019 cumulative IPC: 0.33056 (Simulation time: 0 hr 18 min 12 sec) 
Heartbeat CPU  0 instructions:  330000000 cycles:  776827049 heartbeat IPC: 0.16364 cumulative IPC: 0.32910 (Simulation time: 0 hr 18 min 17 sec) 
Heartbeat CPU  0 instructions:  331000003 cycles:  783020170 heartbeat IPC: 0.16147 cumulative IPC: 0.32762 (Simulation time: 0 hr 18 min 21 sec) 
Heartbeat CPU  0 instructions:  332000000 cycles:  789105726 heartbeat IPC: 0.16432 cumulative IPC: 0.32623 (Simulation time: 0 hr 18 min 26 sec) 
Heartbeat CPU  0 instructions:  333000001 cycles:  795407167 heartbeat IPC: 0.15869 cumulative IPC: 0.32476 (Simulation time: 0 hr 18 min 31 sec) 
Heartbeat CPU  0 instructions:  334000002 cycles:  801455828 heartbeat IPC: 0.16533 cumulative IPC: 0.32342 (Simulation time: 0 hr 18 min 36 sec) 
Heartbeat CPU  0 instructions:  335000001 cycles:  806698171 heartbeat IPC: 0.19075 cumulative IPC: 0.32247 (Simulation time: 0 hr 18 min 40 sec) 
Heartbeat CPU  0 instructions:  336000000 cycles:  808246215 heartbeat IPC: 0.64598 cumulative IPC: 0.32315 (Simulation time: 0 hr 18 min 43 sec) 
Heartbeat CPU  0 instructions:  337000002 cycles:  809833593 heartbeat IPC: 0.62997 cumulative IPC: 0.32382 (Simulation time: 0 hr 18 min 46 sec) 
Heartbeat CPU  0 instructions:  338000002 cycles:  811401813 heartbeat IPC: 0.63767 cumulative IPC: 0.32449 (Simulation time: 0 hr 18 min 49 sec) 
Heartbeat CPU  0 instructions:  339000000 cycles:  812845348 heartbeat IPC: 0.69274 cumulative IPC: 0.32521 (Simulation time: 0 hr 18 min 52 sec) 
Heartbeat CPU  0 instructions:  340000000 cycles:  814295882 heartbeat IPC: 0.68940 cumulative IPC: 0.32593 (Simulation time: 0 hr 18 min 55 sec) 
Heartbeat CPU  0 instructions:  341000002 cycles:  815805843 heartbeat IPC: 0.66227 cumulative IPC: 0.32662 (Simulation time: 0 hr 18 min 58 sec) 
Heartbeat CPU  0 instructions:  342000001 cycles:  817402975 heartbeat IPC: 0.62612 cumulative IPC: 0.32727 (Simulation time: 0 hr 19 min 1 sec) 
Heartbeat CPU  0 instructions:  343000003 cycles:  818938243 heartbeat IPC: 0.65135 cumulative IPC: 0.32794 (Simulation time: 0 hr 19 min 4 sec) 
Heartbeat CPU  0 instructions:  344000000 cycles:  820450786 heartbeat IPC: 0.66114 cumulative IPC: 0.32862 (Simulation time: 0 hr 19 min 7 sec) 
Heartbeat CPU  0 instructions:  345000001 cycles:  821934925 heartbeat IPC: 0.67379 cumulative IPC: 0.32931 (Simulation time: 0 hr 19 min 10 sec) 
Heartbeat CPU  0 instructions:  346000002 cycles:  823441465 heartbeat IPC: 0.66377 cumulative IPC: 0.32998 (Simulation time: 0 hr 19 min 13 sec) 
Heartbeat CPU  0 instructions:  347000000 cycles:  825841926 heartbeat IPC: 0.41659 cumulative IPC: 0.33026 (Simulation time: 0 hr 19 min 17 sec) 
Heartbeat CPU  0 instructions:  348000000 cycles:  827612839 heartbeat IPC: 0.56468 cumulative IPC: 0.33081 (Simulation time: 0 hr 19 min 20 sec) 
Heartbeat CPU  0 instructions:  349000001 cycles:  829193622 heartbeat IPC: 0.63260 cumulative IPC: 0.33145 (Simulation time: 0 hr 19 min 23 sec) 
Heartbeat CPU  0 instructions:  350000001 cycles:  830764577 heartbeat IPC: 0.63656 cumulative IPC: 0.33209 (Simulation time: 0 hr 19 min 26 sec) 
Heartbeat CPU  0 instructions:  351000002 cycles:  832320374 heartbeat IPC: 0.64276 cumulative IPC: 0.33273 (Simulation time: 0 hr 19 min 29 sec) 
Heartbeat CPU  0 instructions:  352000000 cycles:  833974729 heartbeat IPC: 0.60446 cumulative IPC: 0.33332 (Simulation time: 0 hr 19 min 32 sec) 
Heartbeat CPU  0 instructions:  353000002 cycles:  835600450 heartbeat IPC: 0.61511 cumulative IPC: 0.33393 (Simulation time: 0 hr 19 min 35 sec) 
Heartbeat CPU  0 instructions:  354000000 cycles:  837224973 heartbeat IPC: 0.61556 cumulative IPC: 0.33453 (Simulation time: 0 hr 19 min 38 sec) 
Heartbeat CPU  0 instructions:  355000003 cycles:  838755220 heartbeat IPC: 0.65349 cumulative IPC: 0.33517 (Simulation time: 0 hr 19 min 41 sec) 
Heartbeat CPU  0 instructions:  356000000 cycles:  840492365 heartbeat IPC: 0.57566 cumulative IPC: 0.33572 (Simulation time: 0 hr 19 min 44 sec) 
Heartbeat CPU  0 instructions:  357000001 cycles:  842113332 heartbeat IPC: 0.61692 cumulative IPC: 0.33631 (Simulation time: 0 hr 19 min 47 sec) 
Heartbeat CPU  0 instructions:  358000003 cycles:  843743288 heartbeat IPC: 0.61351 cumulative IPC: 0.33690 (Simulation time: 0 hr 19 min 50 sec) 
Heartbeat CPU  0 instructions:  359000002 cycles:  845307331 heartbeat IPC: 0.63937 cumulative IPC: 0.33752 (Simulation time: 0 hr 19 min 53 sec) 
Heartbeat CPU  0 instructions:  360000000 cycles:  847299251 heartbeat IPC: 0.50203 cumulative IPC: 0.33795 (Simulation time: 0 hr 19 min 56 sec) 
Heartbeat CPU  0 instructions:  361000000 cycles:  848604933 heartbeat IPC: 0.76588 cumulative IPC: 0.33867 (Simulation time: 0 hr 19 min 59 sec) 
Heartbeat CPU  0 instructions:  362000002 cycles:  849937446 heartbeat IPC: 0.75046 cumulative IPC: 0.33938 (Simulation time: 0 hr 20 min 2 sec) 
Heartbeat CPU  0 instructions:  363000002 cycles:  851263388 heartbeat IPC: 0.75418 cumulative IPC: 0.34009 (Simulation time: 0 hr 20 min 5 sec) 
Heartbeat CPU  0 instructions:  364000000 cycles:  852565708 heartbeat IPC: 0.76786 cumulative IPC: 0.34081 (Simulation time: 0 hr 20 min 8 sec) 
Heartbeat CPU  0 instructions:  365000002 cycles:  853870352 heartbeat IPC: 0.76649 cumulative IPC: 0.34153 (Simulation time: 0 hr 20 min 11 sec) 
Heartbeat CPU  0 instructions:  366000002 cycles:  855181116 heartbeat IPC: 0.76291 cumulative IPC: 0.34224 (Simulation time: 0 hr 20 min 14 sec) 
Heartbeat CPU  0 instructions:  367000001 cycles:  856477270 heartbeat IPC: 0.77151 cumulative IPC: 0.34295 (Simulation time: 0 hr 20 min 16 sec) 
Heartbeat CPU  0 instructions:  368000000 cycles:  857769650 heartbeat IPC: 0.77377 cumulative IPC: 0.34367 (Simulation time: 0 hr 20 min 19 sec) 
Heartbeat CPU  0 instructions:  369000000 cycles:  859056206 heartbeat IPC: 0.77727 cumulative IPC: 0.34438 (Simulation time: 0 hr 20 min 22 sec) 
Heartbeat CPU  0 instructions:  370000003 cycles:  860360189 heartbeat IPC: 0.76688 cumulative IPC: 0.34509 (Simulation time: 0 hr 20 min 25 sec) 
Heartbeat CPU  0 instructions:  371000001 cycles:  861650092 heartbeat IPC: 0.77525 cumulative IPC: 0.34579 (Simulation time: 0 hr 20 min 28 sec) 
Heartbeat CPU  0 instructions:  372000000 cycles:  862946719 heartbeat IPC: 0.77123 cumulative IPC: 0.34650 (Simulation time: 0 hr 20 min 31 sec) 
Heartbeat CPU  0 instructions:  373000000 cycles:  864236427 heartbeat IPC: 0.77537 cumulative IPC: 0.34720 (Simulation time: 0 hr 20 min 33 sec) 
Heartbeat CPU  0 instructions:  374000000 cycles:  865521121 heartbeat IPC: 0.77840 cumulative IPC: 0.34790 (Simulation time: 0 hr 20 min 36 sec) 
Heartbeat CPU  0 instructions:  375000001 cycles:  867409243 heartbeat IPC: 0.52963 cumulative IPC: 0.34834 (Simulation time: 0 hr 20 min 39 sec) 
Heartbeat CPU  0 instructions:  376000000 cycles:  868762155 heartbeat IPC: 0.73915 cumulative IPC: 0.34901 (Simulation time: 0 hr 20 min 42 sec) 
Heartbeat CPU  0 instructions:  377000001 cycles:  870109087 heartbeat IPC: 0.74243 cumulative IPC: 0.34968 (Simulation time: 0 hr 20 min 45 sec) 
Heartbeat CPU  0 instructions:  378000003 cycles:  871436843 heartbeat IPC: 0.75315 cumulative IPC: 0.35035 (Simulation time: 0 hr 20 min 48 sec) 
Heartbeat CPU  0 instructions:  379000000 cycles:  872765420 heartbeat IPC: 0.75268 cumulative IPC: 0.35102 (Simulation time: 0 hr 20 min 51 sec) 
Heartbeat CPU  0 instructions:  380000000 cycles:  874076727 heartbeat IPC: 0.76260 cumulative IPC: 0.35170 (Simulation time: 0 hr 20 min 54 sec) 
Heartbeat CPU  0 instructions:  381000003 cycles:  875420506 heartbeat IPC: 0.74417 cumulative IPC: 0.35236 (Simulation time: 0 hr 20 min 56 sec) 
Heartbeat CPU  0 instructions:  382000003 cycles:  876733946 heartbeat IPC: 0.76136 cumulative IPC: 0.35303 (Simulation time: 0 hr 20 min 59 sec) 
Heartbeat CPU  0 instructions:  383000003 cycles:  878037538 heartbeat IPC: 0.76711 cumulative IPC: 0.35371 (Simulation time: 0 hr 21 min 2 sec) 
Heartbeat CPU  0 instructions:  384000000 cycles:  879288113 heartbeat IPC: 0.79963 cumulative IPC: 0.35441 (Simulation time: 0 hr 21 min 5 sec) 
Heartbeat CPU  0 instructions:  385000003 cycles:  880563999 heartbeat IPC: 0.78377 cumulative IPC: 0.35509 (Simulation time: 0 hr 21 min 8 sec) 
Heartbeat CPU  0 instructions:  386000001 cycles:  881802725 heartbeat IPC: 0.80728 cumulative IPC: 0.35578 (Simulation time: 0 hr 21 min 11 sec) 
Heartbeat CPU  0 instructions:  387000003 cycles:  883097042 heartbeat IPC: 0.77261 cumulative IPC: 0.35645 (Simulation time: 0 hr 21 min 13 sec) 
Heartbeat CPU  0 instructions:  388000000 cycles:  884381978 heartbeat IPC: 0.77825 cumulative IPC: 0.35713 (Simulation time: 0 hr 21 min 16 sec) 
Heartbeat CPU  0 instructions:  389000003 cycles:  885652795 heartbeat IPC: 0.78690 cumulative IPC: 0.35780 (Simulation time: 0 hr 21 min 19 sec) 
Heartbeat CPU  0 instructions:  390000000 cycles:  888897507 heartbeat IPC: 0.30819 cumulative IPC: 0.35760 (Simulation time: 0 hr 21 min 23 sec) 
Heartbeat CPU  0 instructions:  391000003 cycles:  895377186 heartbeat IPC: 0.15433 cumulative IPC: 0.35599 (Simulation time: 0 hr 21 min 28 sec) 
Heartbeat CPU  0 instructions:  392000000 cycles:  901845682 heartbeat IPC: 0.15459 cumulative IPC: 0.35441 (Simulation time: 0 hr 21 min 33 sec) 
Heartbeat CPU  0 instructions:  393000003 cycles:  908139286 heartbeat IPC: 0.15889 cumulative IPC: 0.35293 (Simulation time: 0 hr 21 min 38 sec) 
Heartbeat CPU  0 instructions:  394000002 cycles:  914495647 heartbeat IPC: 0.15732 cumulative IPC: 0.35144 (Simulation time: 0 hr 21 min 42 sec) 
Heartbeat CPU  0 instructions:  395000002 cycles:  920795867 heartbeat IPC: 0.15872 cumulative IPC: 0.35000 (Simulation time: 0 hr 21 min 47 sec) 
Heartbeat CPU  0 instructions:  396000000 cycles:  927087522 heartbeat IPC: 0.15894 cumulative IPC: 0.34859 (Simulation time: 0 hr 21 min 52 sec) 
Heartbeat CPU  0 instructions:  397000002 cycles:  933423624 heartbeat IPC: 0.15783 cumulative IPC: 0.34717 (Simulation time: 0 hr 21 min 57 sec) 
Heartbeat CPU  0 instructions:  398000001 cycles:  939524936 heartbeat IPC: 0.16390 cumulative IPC: 0.34588 (Simulation time: 0 hr 22 min 2 sec) 
Heartbeat CPU  0 instructions:  399000002 cycles:  945795205 heartbeat IPC: 0.15948 cumulative IPC: 0.34453 (Simulation time: 0 hr 22 min 7 sec) 
Heartbeat CPU  0 instructions:  400000000 cycles:  952305956 heartbeat IPC: 0.15359 cumulative IPC: 0.34311 (Simulation time: 0 hr 22 min 12 sec) 
Heartbeat CPU  0 instructions:  401000001 cycles:  958659532 heartbeat IPC: 0.15739 cumulative IPC: 0.34177 (Simulation time: 0 hr 22 min 17 sec) 
Heartbeat CPU  0 instructions:  402000000 cycles:  965610695 heartbeat IPC: 0.14386 cumulative IPC: 0.34022 (Simulation time: 0 hr 22 min 22 sec) 
Heartbeat CPU  0 instructions:  403000000 cycles:  971886188 heartbeat IPC: 0.15935 cumulative IPC: 0.33895 (Simulation time: 0 hr 22 min 27 sec) 
Heartbeat CPU  0 instructions:  404000000 cycles:  977995708 heartbeat IPC: 0.16368 cumulative IPC: 0.33776 (Simulation time: 0 hr 22 min 32 sec) 
Heartbeat CPU  0 instructions:  405000000 cycles:  984257115 heartbeat IPC: 0.15971 cumulative IPC: 0.33653 (Simulation time: 0 hr 22 min 37 sec) 
Heartbeat CPU  0 instructions:  406000000 cycles:  990445641 heartbeat IPC: 0.16159 cumulative IPC: 0.33534 (Simulation time: 0 hr 22 min 41 sec) 
Heartbeat CPU  0 instructions:  407000002 cycles:  996913213 heartbeat IPC: 0.15462 cumulative IPC: 0.33407 (Simulation time: 0 hr 22 min 46 sec) 
Heartbeat CPU  0 instructions:  408000000 cycles: 1003247235 heartbeat IPC: 0.15788 cumulative IPC: 0.33286 (Simulation time: 0 hr 22 min 51 sec) 
Heartbeat CPU  0 instructions:  409000002 cycles: 1009432937 heartbeat IPC: 0.16166 cumulative IPC: 0.33173 (Simulation time: 0 hr 22 min 56 sec) 
Heartbeat CPU  0 instructions:  410000003 cycles: 1015566129 heartbeat IPC: 0.16305 cumulative IPC: 0.33062 (Simulation time: 0 hr 23 min 1 sec) 
Heartbeat CPU  0 instructions:  411000001 cycles: 1021685447 heartbeat IPC: 0.16342 cumulative IPC: 0.32954 (Simulation time: 0 hr 23 min 6 sec) 
Heartbeat CPU  0 instructions:  412000000 cycles: 1027942924 heartbeat IPC: 0.15981 cumulative IPC: 0.32842 (Simulation time: 0 hr 23 min 11 sec) 
Heartbeat CPU  0 instructions:  413000002 cycles: 1034117624 heartbeat IPC: 0.16195 cumulative IPC: 0.32735 (Simulation time: 0 hr 23 min 15 sec) 
Heartbeat CPU  0 instructions:  414000001 cycles: 1040133606 heartbeat IPC: 0.16622 cumulative IPC: 0.32634 (Simulation time: 0 hr 23 min 20 sec) 
Heartbeat CPU  0 instructions:  415000000 cycles: 1041654047 heartbeat IPC: 0.65770 cumulative IPC: 0.32686 (Simulation time: 0 hr 23 min 23 sec) 
Heartbeat CPU  0 instructions:  416000000 cycles: 1043047339 heartbeat IPC: 0.71772 cumulative IPC: 0.32743 (Simulation time: 0 hr 23 min 26 sec) 
Heartbeat CPU  0 instructions:  417000003 cycles: 1044509794 heartbeat IPC: 0.68378 cumulative IPC: 0.32797 (Simulation time: 0 hr 23 min 29 sec) 
Heartbeat CPU  0 instructions:  418000000 cycles: 1045918061 heartbeat IPC: 0.71009 cumulative IPC: 0.32852 (Simulation time: 0 hr 23 min 32 sec) 
Heartbeat CPU  0 instructions:  419000002 cycles: 1047279321 heartbeat IPC: 0.73461 cumulative IPC: 0.32909 (Simulation time: 0 hr 23 min 35 sec) 
Heartbeat CPU  0 instructions:  420000000 cycles: 1048655679 heartbeat IPC: 0.72655 cumulative IPC: 0.32966 (Simulation time: 0 hr 23 min 38 sec) 
Heartbeat CPU  0 instructions:  421000000 cycles: 1050006800 heartbeat IPC: 0.74013 cumulative IPC: 0.33023 (Simulation time: 0 hr 23 min 41 sec) 
Heartbeat CPU  0 instructions:  422000001 cycles: 1051352764 heartbeat IPC: 0.74296 cumulative IPC: 0.33080 (Simulation time: 0 hr 23 min 44 sec) 
Heartbeat CPU  0 instructions:  423000003 cycles: 1052813588 heartbeat IPC: 0.68455 cumulative IPC: 0.33133 (Simulation time: 0 hr 23 min 47 sec) 
Heartbeat CPU  0 instructions:  424000000 cycles: 1054151333 heartbeat IPC: 0.74752 cumulative IPC: 0.33190 (Simulation time: 0 hr 23 min 50 sec) 
Heartbeat CPU  0 instructions:  425000003 cycles: 1055486925 heartbeat IPC: 0.74873 cumulative IPC: 0.33247 (Simulation time: 0 hr 23 min 53 sec) 
Heartbeat CPU  0 instructions:  426000002 cycles: 1056822447 heartbeat IPC: 0.74877 cumulative IPC: 0.33303 (Simulation time: 0 hr 23 min 56 sec) 
Heartbeat CPU  0 instructions:  427000003 cycles: 1059247952 heartbeat IPC: 0.41229 cumulative IPC: 0.33323 (Simulation time: 0 hr 23 min 59 sec) 
Heartbeat CPU  0 instructions:  428000000 cycles: 1060717058 heartbeat IPC: 0.68068 cumulative IPC: 0.33375 (Simulation time: 0 hr 24 min 2 sec) 
Heartbeat CPU  0 instructions:  429000001 cycles: 1062285989 heartbeat IPC: 0.63738 cumulative IPC: 0.33423 (Simulation time: 0 hr 24 min 5 sec) 
Heartbeat CPU  0 instructions:  430000003 cycles: 1063898870 heartbeat IPC: 0.62001 cumulative IPC: 0.33470 (Simulation time: 0 hr 24 min 8 sec) 
Heartbeat CPU  0 instructions:  431000001 cycles: 1065380799 heartbeat IPC: 0.67479 cumulative IPC: 0.33521 (Simulation time: 0 hr 24 min 11 sec) 
Heartbeat CPU  0 instructions:  432000000 cycles: 1066915758 heartbeat IPC: 0.65148 cumulative IPC: 0.33570 (Simulation time: 0 hr 24 min 14 sec) 
Heartbeat CPU  0 instructions:  433000001 cycles: 1068374773 heartbeat IPC: 0.68539 cumulative IPC: 0.33622 (Simulation time: 0 hr 24 min 17 sec) 
Heartbeat CPU  0 instructions:  434000001 cycles: 1069861006 heartbeat IPC: 0.67284 cumulative IPC: 0.33672 (Simulation time: 0 hr 24 min 20 sec) 
Heartbeat CPU  0 instructions:  435000000 cycles: 1071344342 heartbeat IPC: 0.67416 cumulative IPC: 0.33723 (Simulation time: 0 hr 24 min 23 sec) 
Heartbeat CPU  0 instructions:  436000000 cycles: 1072865564 heartbeat IPC: 0.65737 cumulative IPC: 0.33772 (Simulation time: 0 hr 24 min 26 sec) 
Heartbeat CPU  0 instructions:  437000000 cycles: 1074371851 heartbeat IPC: 0.66388 cumulative IPC: 0.33821 (Simulation time: 0 hr 24 min 29 sec) 
Heartbeat CPU  0 instructions:  438000000 cycles: 1075828815 heartbeat IPC: 0.68636 cumulative IPC: 0.33872 (Simulation time: 0 hr 24 min 32 sec) 
Heartbeat CPU  0 instructions:  439000002 cycles: 1077876060 heartbeat IPC: 0.48846 cumulative IPC: 0.33902 (Simulation time: 0 hr 24 min 35 sec) 
Heartbeat CPU  0 instructions:  440000000 cycles: 1079224829 heartbeat IPC: 0.74142 cumulative IPC: 0.33957 (Simulation time: 0 hr 24 min 38 sec) 
Heartbeat CPU  0 instructions:  441000001 cycles: 1080572975 heartbeat IPC: 0.74176 cumulative IPC: 0.34011 (Simulation time: 0 hr 24 min 41 sec) 
Heartbeat CPU  0 instructions:  442000001 cycles: 1081893862 heartbeat IPC: 0.75707 cumulative IPC: 0.34065 (Simulation time: 0 hr 24 min 44 sec) 
Heartbeat CPU  0 instructions:  443000000 cycles: 1083230587 heartbeat IPC: 0.74810 cumulative IPC: 0.34120 (Simulation time: 0 hr 24 min 47 sec) 
Heartbeat CPU  0 instructions:  444000000 cycles: 1084554150 heartbeat IPC: 0.75554 cumulative IPC: 0.34174 (Simulation time: 0 hr 24 min 50 sec) 
Heartbeat CPU  0 instructions:  445000000 cycles: 1085869713 heartbeat IPC: 0.76013 cumulative IPC: 0.34229 (Simulation time: 0 hr 24 min 53 sec) 
Heartbeat CPU  0 instructions:  446000002 cycles: 1087191913 heartbeat IPC: 0.75632 cumulative IPC: 0.34283 (Simulation time: 0 hr 24 min 55 sec) 
Heartbeat CPU  0 instructions:  447000000 cycles: 1088495291 heartbeat IPC: 0.76724 cumulative IPC: 0.34338 (Simulation time: 0 hr 24 min 58 sec) 
Heartbeat CPU  0 instructions:  448000000 cycles: 1089812632 heartbeat IPC: 0.75910 cumulative IPC: 0.34392 (Simulation time: 0 hr 25 min 1 sec) 
Heartbeat CPU  0 instructions:  449000003 cycles: 1091141461 heartbeat IPC: 0.75254 cumulative IPC: 0.34445 (Simulation time: 0 hr 25 min 4 sec) 
Heartbeat CPU  0 instructions:  450000003 cycles: 1092445750 heartbeat IPC: 0.76670 cumulative IPC: 0.34500 (Simulation time: 0 hr 25 min 7 sec) 
Heartbeat CPU  0 instructions:  451000003 cycles: 1093745139 heartbeat IPC: 0.76959 cumulative IPC: 0.34554 (Simulation time: 0 hr 25 min 10 sec) 
Heartbeat CPU  0 instructions:  452000000 cycles: 1095038900 heartbeat IPC: 0.77294 cumulative IPC: 0.34608 (Simulation time: 0 hr 25 min 12 sec) 
Heartbeat CPU  0 instructions:  453000003 cycles: 1096331952 heartbeat IPC: 0.77337 cumulative IPC: 0.34663 (Simulation time: 0 hr 25 min 15 sec) 
Heartbeat CPU  0 instructions:  454000001 cycles: 1098226628 heartbeat IPC: 0.52779 cumulative IPC: 0.34696 (Simulation time: 0 hr 25 min 18 sec) 
Heartbeat CPU  0 instructions:  455000003 cycles: 1099600119 heartbeat IPC: 0.72807 cumulative IPC: 0.34748 (Simulation time: 0 hr 25 min 21 sec) 
Heartbeat CPU  0 instructions:  456000000 cycles: 1100939836 heartbeat IPC: 0.74642 cumulative IPC: 0.34800 (Simulation time: 0 hr 25 min 24 sec) 
Heartbeat CPU  0 instructions:  457000001 cycles: 1102299823 heartbeat IPC: 0.73530 cumulative IPC: 0.34851 (Simulation time: 0 hr 25 min 27 sec) 
Heartbeat CPU  0 instructions:  458000003 cycles: 1103645880 heartbeat IPC: 0.74291 cumulative IPC: 0.34903 (Simulation time: 0 hr 25 min 30 sec) 
Heartbeat CPU  0 instructions:  459000001 cycles: 1104983047 heartbeat IPC: 0.74785 cumulative IPC: 0.34955 (Simulation time: 0 hr 25 min 33 sec) 
Heartbeat CPU  0 instructions:  460000000 cycles: 1106313259 heartbeat IPC: 0.75176 cumulative IPC: 0.35007 (Simulation time: 0 hr 25 min 36 sec) 
Heartbeat CPU  0 instructions:  461000003 cycles: 1107661685 heartbeat IPC: 0.74161 cumulative IPC: 0.35058 (Simulation time: 0 hr 25 min 38 sec) 
Heartbeat CPU  0 instructions:  462000001 cycles: 1108981175 heartbeat IPC: 0.75787 cumulative IPC: 0.35110 (Simulation time: 0 hr 25 min 41 sec) 
Heartbeat CPU  0 instructions:  463000000 cycles: 1110327472 heartbeat IPC: 0.74278 cumulative IPC: 0.35161 (Simulation time: 0 hr 25 min 44 sec) 
Heartbeat CPU  0 instructions:  464000000 cycles: 1111661084 heartbeat IPC: 0.74984 cumulative IPC: 0.35213 (Simulation time: 0 hr 25 min 47 sec) 
Heartbeat CPU  0 instructions:  465000001 cycles: 1112987167 heartbeat IPC: 0.75410 cumulative IPC: 0.35264 (Simulation time: 0 hr 25 min 50 sec) 
Heartbeat CPU  0 instructions:  466000003 cycles: 1114304928 heartbeat IPC: 0.75886 cumulative IPC: 0.35316 (Simulation time: 0 hr 25 min 53 sec) 
Heartbeat CPU  0 instructions:  467000003 cycles: 1115619232 heartbeat IPC: 0.76086 cumulative IPC: 0.35368 (Simulation time: 0 hr 25 min 55 sec) 
Heartbeat CPU  0 instructions:  468000000 cycles: 1116933655 heartbeat IPC: 0.76079 cumulative IPC: 0.35419 (Simulation time: 0 hr 25 min 58 sec) 
Heartbeat CPU  0 instructions:  469000002 cycles: 1118883030 heartbeat IPC: 0.51299 cumulative IPC: 0.35449 (Simulation time: 0 hr 26 min 1 sec) 
Heartbeat CPU  0 instructions:  470000000 cycles: 1124007341 heartbeat IPC: 0.19515 cumulative IPC: 0.35371 (Simulation time: 0 hr 26 min 6 sec) 
Heartbeat CPU  0 instructions:  471000001 cycles: 1129058346 heartbeat IPC: 0.19798 cumulative IPC: 0.35296 (Simulation time: 0 hr 26 min 10 sec) 
Heartbeat CPU  0 instructions:  472000000 cycles: 1134066010 heartbeat IPC: 0.19969 cumulative IPC: 0.35223 (Simulation time: 0 hr 26 min 14 sec) 
Heartbeat CPU  0 instructions:  473000001 cycles: 1139107987 heartbeat IPC: 0.19834 cumulative IPC: 0.35150 (Simulation time: 0 hr 26 min 19 sec) 
Heartbeat CPU  0 instructions:  474000003 cycles: 1144132382 heartbeat IPC: 0.19903 cumulative IPC: 0.35078 (Simulation time: 0 hr 26 min 23 sec) 
Heartbeat CPU  0 instructions:  475000002 cycles: 1149138946 heartbeat IPC: 0.19974 cumulative IPC: 0.35008 (Simulation time: 0 hr 26 min 28 sec) 
Heartbeat CPU  0 instructions:  476000000 cycles: 1154141559 heartbeat IPC: 0.19990 cumulative IPC: 0.34938 (Simulation time: 0 hr 26 min 32 sec) 
Heartbeat CPU  0 instructions:  477000003 cycles: 1159143001 heartbeat IPC: 0.19994 cumulative IPC: 0.34869 (Simulation time: 0 hr 26 min 36 sec) 
Heartbeat CPU  0 instructions:  478000000 cycles: 1164139016 heartbeat IPC: 0.20016 cumulative IPC: 0.34800 (Simulation time: 0 hr 26 min 41 sec) 
Heartbeat CPU  0 instructions:  479000001 cycles: 1169149846 heartbeat IPC: 0.19957 cumulative IPC: 0.34732 (Simulation time: 0 hr 26 min 45 sec) 
Heartbeat CPU  0 instructions:  480000000 cycles: 1174128243 heartbeat IPC: 0.20087 cumulative IPC: 0.34666 (Simulation time: 0 hr 26 min 49 sec) 
Heartbeat CPU  0 instructions:  481000001 cycles: 1179181018 heartbeat IPC: 0.19791 cumulative IPC: 0.34598 (Simulation time: 0 hr 26 min 54 sec) 
Heartbeat CPU  0 instructions:  482000000 cycles: 1183368532 heartbeat IPC: 0.23880 cumulative IPC: 0.34557 (Simulation time: 0 hr 26 min 57 sec) 
Heartbeat CPU  0 instructions:  483000001 cycles: 1187384357 heartbeat IPC: 0.24902 cumulative IPC: 0.34522 (Simulation time: 0 hr 27 min 1 sec) 
Heartbeat CPU  0 instructions:  484000000 cycles: 1191402868 heartbeat IPC: 0.24885 cumulative IPC: 0.34487 (Simulation time: 0 hr 27 min 5 sec) 
Heartbeat CPU  0 instructions:  485000001 cycles: 1195470514 heartbeat IPC: 0.24584 cumulative IPC: 0.34451 (Simulation time: 0 hr 27 min 9 sec) 
Heartbeat CPU  0 instructions:  486000002 cycles: 1199524526 heartbeat IPC: 0.24667 cumulative IPC: 0.34416 (Simulation time: 0 hr 27 min 13 sec) 
Heartbeat CPU  0 instructions:  487000003 cycles: 1203574463 heartbeat IPC: 0.24692 cumulative IPC: 0.34381 (Simulation time: 0 hr 27 min 17 sec) 
Heartbeat CPU  0 instructions:  488000000 cycles: 1207616246 heartbeat IPC: 0.24741 cumulative IPC: 0.34346 (Simulation time: 0 hr 27 min 21 sec) 
Heartbeat CPU  0 instructions:  489000002 cycles: 1211613649 heartbeat IPC: 0.25016 cumulative IPC: 0.34313 (Simulation time: 0 hr 27 min 25 sec) 
Heartbeat CPU  0 instructions:  490000003 cycles: 1215608212 heartbeat IPC: 0.25034 cumulative IPC: 0.34281 (Simulation time: 0 hr 27 min 29 sec) 
Heartbeat CPU  0 instructions:  491000000 cycles: 1219633291 heartbeat IPC: 0.24844 cumulative IPC: 0.34248 (Simulation time: 0 hr 27 min 33 sec) 
Heartbeat CPU  0 instructions:  492000000 cycles: 1223638943 heartbeat IPC: 0.24965 cumulative IPC: 0.34215 (Simulation time: 0 hr 27 min 36 sec) 
Heartbeat CPU  0 instructions:  493000002 cycles: 1227536068 heartbeat IPC: 0.25660 cumulative IPC: 0.34186 (Simulation time: 0 hr 27 min 40 sec) 
Heartbeat CPU  0 instructions:  494000002 cycles: 1229965072 heartbeat IPC: 0.41169 cumulative IPC: 0.34201 (Simulation time: 0 hr 27 min 44 sec) 
Heartbeat CPU  0 instructions:  495000003 cycles: 1231746320 heartbeat IPC: 0.56140 cumulative IPC: 0.34235 (Simulation time: 0 hr 27 min 47 sec) 
Heartbeat CPU  0 instructions:  496000000 cycles: 1233547143 heartbeat IPC: 0.55530 cumulative IPC: 0.34268 (Simulation time: 0 hr 27 min 50 sec) 
Heartbeat CPU  0 instructions:  497000002 cycles: 1235312942 heartbeat IPC: 0.56632 cumulative IPC: 0.34302 (Simulation time: 0 hr 27 min 53 sec) 
Heartbeat CPU  0 instructions:  498000002 cycles: 1237081858 heartbeat IPC: 0.56532 cumulative IPC: 0.34336 (Simulation time: 0 hr 27 min 56 sec) 
Heartbeat CPU  0 instructions:  499000000 cycles: 1238842574 heartbeat IPC: 0.56795 cumulative IPC: 0.34370 (Simulation time: 0 hr 27 min 59 sec) 
Heartbeat CPU  0 instructions:  500000000 cycles: 1240552772 heartbeat IPC: 0.58473 cumulative IPC: 0.34405 (Simulation time: 0 hr 28 min 2 sec) 
Heartbeat CPU  0 instructions:  501000000 cycles: 1242259208 heartbeat IPC: 0.58602 cumulative IPC: 0.34441 (Simulation time: 0 hr 28 min 5 sec) 
Heartbeat CPU  0 instructions:  502000001 cycles: 1243999182 heartbeat IPC: 0.57472 cumulative IPC: 0.34475 (Simulation time: 0 hr 28 min 8 sec) 
Heartbeat CPU  0 instructions:  503000001 cycles: 1245735178 heartbeat IPC: 0.57604 cumulative IPC: 0.34510 (Simulation time: 0 hr 28 min 11 sec) 
Heartbeat CPU  0 instructions:  504000000 cycles: 1247434748 heartbeat IPC: 0.58838 cumulative IPC: 0.34545 (Simulation time: 0 hr 28 min 14 sec) 
Heartbeat CPU  0 instructions:  505000000 cycles: 1249184213 heartbeat IPC: 0.57160 cumulative IPC: 0.34579 (Simulation time: 0 hr 28 min 16 sec) 
Heartbeat CPU  0 instructions:  506000001 cycles: 1251537540 heartbeat IPC: 0.42493 cumulative IPC: 0.34595 (Simulation time: 0 hr 28 min 20 sec) 
Heartbeat CPU  0 instructions:  507000002 cycles: 1253288460 heartbeat IPC: 0.57113 cumulative IPC: 0.34628 (Simulation time: 0 hr 28 min 23 sec) 
Heartbeat CPU  0 instructions:  508000000 cycles: 1255096369 heartbeat IPC: 0.55312 cumulative IPC: 0.34660 (Simulation time: 0 hr 28 min 26 sec) 
Heartbeat CPU  0 instructions:  509000000 cycles: 1256908234 heartbeat IPC: 0.55192 cumulative IPC: 0.34692 (Simulation time: 0 hr 28 min 29 sec) 
Heartbeat CPU  0 instructions:  510000001 cycles: 1258709754 heartbeat IPC: 0.55509 cumulative IPC: 0.34723 (Simulation time: 0 hr 28 min 32 sec) 
Heartbeat CPU  0 instructions:  511000002 cycles: 1260482317 heartbeat IPC: 0.56416 cumulative IPC: 0.34756 (Simulation time: 0 hr 28 min 35 sec) 
Heartbeat CPU  0 instructions:  512000000 cycles: 1262281894 heartbeat IPC: 0.55569 cumulative IPC: 0.34787 (Simulation time: 0 hr 28 min 38 sec) 
Heartbeat CPU  0 instructions:  513000002 cycles: 1264039118 heartbeat IPC: 0.56908 cumulative IPC: 0.34820 (Simulation time: 0 hr 28 min 41 sec) 
Heartbeat CPU  0 instructions:  514000001 cycles: 1265782788 heartbeat IPC: 0.57350 cumulative IPC: 0.34853 (Simulation time: 0 hr 28 min 44 sec) 
Heartbeat CPU  0 instructions:  515000000 cycles: 1267536078 heartbeat IPC: 0.57036 cumulative IPC: 0.34886 (Simulation time: 0 hr 28 min 47 sec) 
Heartbeat CPU  0 instructions:  516000000 cycles: 1269303690 heartbeat IPC: 0.56574 cumulative IPC: 0.34918 (Simulation time: 0 hr 28 min 50 sec) 
Heartbeat CPU  0 instructions:  517000001 cycles: 1271065757 heartbeat IPC: 0.56752 cumulative IPC: 0.34950 (Simulation time: 0 hr 28 min 53 sec) 
Heartbeat CPU  0 instructions:  518000001 cycles: 1273064491 heartbeat IPC: 0.50032 cumulative IPC: 0.34976 (Simulation time: 0 hr 28 min 56 sec) 
Heartbeat CPU  0 instructions:  519000000 cycles: 1274560237 heartbeat IPC: 0.66856 cumulative IPC: 0.35015 (Simulation time: 0 hr 28 min 59 sec) 
Heartbeat CPU  0 instructions:  520000000 cycles: 1276056840 heartbeat IPC: 0.66818 cumulative IPC: 0.35055 (Simulation time: 0 hr 29 min 2 sec) 
Heartbeat CPU  0 instructions:  521000000 cycles: 1277548172 heartbeat IPC: 0.67054 cumulative IPC: 0.35095 (Simulation time: 0 hr 29 min 5 sec) 
Heartbeat CPU  0 instructions:  522000002 cycles: 1279039099 heartbeat IPC: 0.67072 cumulative IPC: 0.35135 (Simulation time: 0 hr 29 min 8 sec) 
Heartbeat CPU  0 instructions:  523000001 cycles: 1280512496 heartbeat IPC: 0.67870 cumulative IPC: 0.35175 (Simulation time: 0 hr 29 min 11 sec) 
Heartbeat CPU  0 instructions:  524000000 cycles: 1281988269 heartbeat IPC: 0.67761 cumulative IPC: 0.35215 (Simulation time: 0 hr 29 min 13 sec) 
Heartbeat CPU  0 instructions:  525000002 cycles: 1283459006 heartbeat IPC: 0.67993 cumulative IPC: 0.35255 (Simulation time: 0 hr 29 min 16 sec) 
Heartbeat CPU  0 instructions:  526000000 cycles: 1284930416 heartbeat IPC: 0.67962 cumulative IPC: 0.35295 (Simulation time: 0 hr 29 min 19 sec) 
Heartbeat CPU  0 instructions:  527000001 cycles: 1286386802 heartbeat IPC: 0.68663 cumulative IPC: 0.35335 (Simulation time: 0 hr 29 min 22 sec) 
Heartbeat CPU  0 instructions:  528000000 cycles: 1287834183 heartbeat IPC: 0.69090 cumulative IPC: 0.35375 (Simulation time: 0 hr 29 min 25 sec) 
Heartbeat CPU  0 instructions:  529000001 cycles: 1289282652 heartbeat IPC: 0.69038 cumulative IPC: 0.35415 (Simulation time: 0 hr 29 min 28 sec) 
Heartbeat CPU  0 instructions:  530000001 cycles: 1290717416 heartbeat IPC: 0.69698 cumulative IPC: 0.35456 (Simulation time: 0 hr 29 min 31 sec) 
Heartbeat CPU  0 instructions:  531000003 cycles: 1292154614 heartbeat IPC: 0.69580 cumulative IPC: 0.35496 (Simulation time: 0 hr 29 min 34 sec) 
Heartbeat CPU  0 instructions:  532000000 cycles: 1293577125 heartbeat IPC: 0.70298 cumulative IPC: 0.35537 (Simulation time: 0 hr 29 min 36 sec) 
Heartbeat CPU  0 instructions:  533000003 cycles: 1295468150 heartbeat IPC: 0.52882 cumulative IPC: 0.35564 (Simulation time: 0 hr 29 min 39 sec) 
Heartbeat CPU  0 instructions:  534000003 cycles: 1296974673 heartbeat IPC: 0.66378 cumulative IPC: 0.35602 (Simulation time: 0 hr 29 min 42 sec) 
Heartbeat CPU  0 instructions:  535000003 cycles: 1298467324 heartbeat IPC: 0.66995 cumulative IPC: 0.35640 (Simulation time: 0 hr 29 min 45 sec) 
Heartbeat CPU  0 instructions:  536000000 cycles: 1299957688 heartbeat IPC: 0.67098 cumulative IPC: 0.35679 (Simulation time: 0 hr 29 min 48 sec) 
Heartbeat CPU  0 instructions:  537000003 cycles: 1301455999 heartbeat IPC: 0.66742 cumulative IPC: 0.35717 (Simulation time: 0 hr 29 min 51 sec) 
Heartbeat CPU  0 instructions:  538000003 cycles: 1302936104 heartbeat IPC: 0.67563 cumulative IPC: 0.35755 (Simulation time: 0 hr 29 min 54 sec) 
Heartbeat CPU  0 instructions:  539000003 cycles: 1304417620 heartbeat IPC: 0.67498 cumulative IPC: 0.35794 (Simulation time: 0 hr 29 min 57 sec) 
Heartbeat CPU  0 instructions:  540000000 cycles: 1305880058 heartbeat IPC: 0.68379 cumulative IPC: 0.35833 (Simulation time: 0 hr 30 min 0 sec) 
Heartbeat CPU  0 instructions:  541000001 cycles: 1307350543 heartbeat IPC: 0.68005 cumulative IPC: 0.35871 (Simulation time: 0 hr 30 min 3 sec) 
Heartbeat CPU  0 instructions:  542000001 cycles: 1308797519 heartbeat IPC: 0.69110 cumulative IPC: 0.35910 (Simulation time: 0 hr 30 min 5 sec) 
Heartbeat CPU  0 instructions:  543000001 cycles: 1310257402 heartbeat IPC: 0.68499 cumulative IPC: 0.35949 (Simulation time: 0 hr 30 min 8 sec) 
Heartbeat CPU  0 instructions:  544000000 cycles: 1311704161 heartbeat IPC: 0.69120 cumulative IPC: 0.35988 (Simulation time: 0 hr 30 min 11 sec) 
Heartbeat CPU  0 instructions:  545000003 cycles: 1313157493 heartbeat IPC: 0.68808 cumulative IPC: 0.36026 (Simulation time: 0 hr 30 min 14 sec) 
Heartbeat CPU  0 instructions:  546000003 cycles: 1314616768 heartbeat IPC: 0.68527 cumulative IPC: 0.36065 (Simulation time: 0 hr 30 min 17 sec) 
Heartbeat CPU  0 instructions:  547000001 cycles: 1316054514 heartbeat IPC: 0.69553 cumulative IPC: 0.36103 (Simulation time: 0 hr 30 min 20 sec) 
Heartbeat CPU  0 instructions:  548000000 cycles: 1317480728 heartbeat IPC: 0.70116 cumulative IPC: 0.36143 (Simulation time: 0 hr 30 min 23 sec) 
Heartbeat CPU  0 instructions:  549000003 cycles: 1321725814 heartbeat IPC: 0.23557 cumulative IPC: 0.36100 (Simulation time: 0 hr 30 min 27 sec) 
Heartbeat CPU  0 instructions:  550000000 cycles: 1325978472 heartbeat IPC: 0.23515 cumulative IPC: 0.36057 (Simulation time: 0 hr 30 min 31 sec) 
Heartbeat CPU  0 instructions:  551000003 cycles: 1330258602 heartbeat IPC: 0.23364 cumulative IPC: 0.36013 (Simulation time: 0 hr 30 min 35 sec) 
Heartbeat CPU  0 instructions:  552000000 cycles: 1334550546 heartbeat IPC: 0.23299 cumulative IPC: 0.35970 (Simulation time: 0 hr 30 min 39 sec) 
Heartbeat CPU  0 instructions:  553000000 cycles: 1338813342 heartbeat IPC: 0.23459 cumulative IPC: 0.35928 (Simulation time: 0 hr 30 min 43 sec) 
Heartbeat CPU  0 instructions:  554000001 cycles: 1343084938 heartbeat IPC: 0.23410 cumulative IPC: 0.35885 (Simulation time: 0 hr 30 min 47 sec) 
Heartbeat CPU  0 instructions:  555000001 cycles: 1347323681 heartbeat IPC: 0.23592 cumulative IPC: 0.35844 (Simulation time: 0 hr 30 min 51 sec) 
Heartbeat CPU  0 instructions:  556000000 cycles: 1351600806 heartbeat IPC: 0.23380 cumulative IPC: 0.35802 (Simulation time: 0 hr 30 min 55 sec) 
Heartbeat CPU  0 instructions:  557000001 cycles: 1355870871 heartbeat IPC: 0.23419 cumulative IPC: 0.35761 (Simulation time: 0 hr 30 min 59 sec) 
Heartbeat CPU  0 instructions:  558000003 cycles: 1360142305 heartbeat IPC: 0.23411 cumulative IPC: 0.35720 (Simulation time: 0 hr 31 min 3 sec) 
Heartbeat CPU  0 instructions:  559000002 cycles: 1364382167 heartbeat IPC: 0.23586 cumulative IPC: 0.35680 (Simulation time: 0 hr 31 min 7 sec) 
Heartbeat CPU  0 instructions:  560000000 cycles: 1368603812 heartbeat IPC: 0.23687 cumulative IPC: 0.35641 (Simulation time: 0 hr 31 min 11 sec) 
Heartbeat CPU  0 instructions:  561000003 cycles: 1373297449 heartbeat IPC: 0.21306 cumulative IPC: 0.35589 (Simulation time: 0 hr 31 min 15 sec) 
Heartbeat CPU  0 instructions:  562000001 cycles: 1377640204 heartbeat IPC: 0.23027 cumulative IPC: 0.35547 (Simulation time: 0 hr 31 min 19 sec) 
Heartbeat CPU  0 instructions:  563000003 cycles: 1381988450 heartbeat IPC: 0.22998 cumulative IPC: 0.35505 (Simulation time: 0 hr 31 min 23 sec) 
Heartbeat CPU  0 instructions:  564000000 cycles: 1386351036 heartbeat IPC: 0.22922 cumulative IPC: 0.35463 (Simulation time: 0 hr 31 min 27 sec) 
Heartbeat CPU  0 instructions:  565000001 cycles: 1390719673 heartbeat IPC: 0.22890 cumulative IPC: 0.35421 (Simulation time: 0 hr 31 min 31 sec) 
Heartbeat CPU  0 instructions:  566000001 cycles: 1395050388 heartbeat IPC: 0.23091 cumulative IPC: 0.35381 (Simulation time: 0 hr 31 min 35 sec) 
Heartbeat CPU  0 instructions:  567000002 cycles: 1399373111 heartbeat IPC: 0.23134 cumulative IPC: 0.35341 (Simulation time: 0 hr 31 min 39 sec) 
Heartbeat CPU  0 instructions:  568000000 cycles: 1403682015 heartbeat IPC: 0.23208 cumulative IPC: 0.35301 (Simulation time: 0 hr 31 min 43 sec) 
Heartbeat CPU  0 instructions:  569000001 cycles: 1408017012 heartbeat IPC: 0.23068 cumulative IPC: 0.35261 (Simulation time: 0 hr 31 min 47 sec) 
Heartbeat CPU  0 instructions:  570000000 cycles: 1412343583 heartbeat IPC: 0.23113 cumulative IPC: 0.35222 (Simulation time: 0 hr 31 min 51 sec) 
Heartbeat CPU  0 instructions:  571000002 cycles: 1416696972 heartbeat IPC: 0.22971 cumulative IPC: 0.35182 (Simulation time: 0 hr 31 min 55 sec) 
Heartbeat CPU  0 instructions:  572000000 cycles: 1421008657 heartbeat IPC: 0.23193 cumulative IPC: 0.35144 (Simulation time: 0 hr 31 min 59 sec) 
Heartbeat CPU  0 instructions:  573000000 cycles: 1424168763 heartbeat IPC: 0.31645 cumulative IPC: 0.35135 (Simulation time: 0 hr 32 min 3 sec) 
Heartbeat CPU  0 instructions:  574000002 cycles: 1425951543 heartbeat IPC: 0.56092 cumulative IPC: 0.35163 (Simulation time: 0 hr 32 min 6 sec) 
Heartbeat CPU  0 instructions:  575000000 cycles: 1427756547 heartbeat IPC: 0.55401 cumulative IPC: 0.35190 (Simulation time: 0 hr 32 min 9 sec) 
Heartbeat CPU  0 instructions:  576000000 cycles: 1429574806 heartbeat IPC: 0.54998 cumulative IPC: 0.35217 (Simulation time: 0 hr 32 min 12 sec) 
Heartbeat CPU  0 instructions:  577000001 cycles: 1431359442 heartbeat IPC: 0.56034 cumulative IPC: 0.35244 (Simulation time: 0 hr 32 min 15 sec) 
Heartbeat CPU  0 instructions:  578000000 cycles: 1433179067 heartbeat IPC: 0.54956 cumulative IPC: 0.35271 (Simulation time: 0 hr 32 min 18 sec) 
Heartbeat CPU  0 instructions:  579000000 cycles: 1434997357 heartbeat IPC: 0.54997 cumulative IPC: 0.35297 (Simulation time: 0 hr 32 min 21 sec) 
Heartbeat CPU  0 instructions:  580000000 cycles: 1436786388 heartbeat IPC: 0.55896 cumulative IPC: 0.35324 (Simulation time: 0 hr 32 min 24 sec) 
Heartbeat CPU  0 instructions:  581000001 cycles: 1438584469 heartbeat IPC: 0.55615 cumulative IPC: 0.35351 (Simulation time: 0 hr 32 min 27 sec) 
Heartbeat CPU  0 instructions:  582000003 cycles: 1440393609 heartbeat IPC: 0.55275 cumulative IPC: 0.35377 (Simulation time: 0 hr 32 min 30 sec) 
Heartbeat CPU  0 instructions:  583000000 cycles: 1442214465 heartbeat IPC: 0.54919 cumulative IPC: 0.35404 (Simulation time: 0 hr 32 min 33 sec) 
Heartbeat CPU  0 instructions:  584000000 cycles: 1443997286 heartbeat IPC: 0.56091 cumulative IPC: 0.35431 (Simulation time: 0 hr 32 min 36 sec) 
Heartbeat CPU  0 instructions:  585000002 cycles: 1446458226 heartbeat IPC: 0.40635 cumulative IPC: 0.35440 (Simulation time: 0 hr 32 min 39 sec) 
Heartbeat CPU  0 instructions:  586000001 cycles: 1448284225 heartbeat IPC: 0.54764 cumulative IPC: 0.35466 (Simulation time: 0 hr 32 min 43 sec) 
Heartbeat CPU  0 instructions:  587000000 cycles: 1450119631 heartbeat IPC: 0.54484 cumulative IPC: 0.35491 (Simulation time: 0 hr 32 min 46 sec) 
Heartbeat CPU  0 instructions:  588000000 cycles: 1451979387 heartbeat IPC: 0.53770 cumulative IPC: 0.35516 (Simulation time: 0 hr 32 min 49 sec) 
Heartbeat CPU  0 instructions:  589000001 cycles: 1453830418 heartbeat IPC: 0.54024 cumulative IPC: 0.35541 (Simulation time: 0 hr 32 min 52 sec) 
Heartbeat CPU  0 instructions:  590000001 cycles: 1455656546 heartbeat IPC: 0.54761 cumulative IPC: 0.35566 (Simulation time: 0 hr 32 min 55 sec) 
Heartbeat CPU  0 instructions:  591000000 cycles: 1457482037 heartbeat IPC: 0.54780 cumulative IPC: 0.35592 (Simulation time: 0 hr 32 min 58 sec) 
Heartbeat CPU  0 instructions:  592000000 cycles: 1459338198 heartbeat IPC: 0.53875 cumulative IPC: 0.35616 (Simulation time: 0 hr 33 min 1 sec) 
Heartbeat CPU  0 instructions:  593000002 cycles: 1461182600 heartbeat IPC: 0.54218 cumulative IPC: 0.35641 (Simulation time: 0 hr 33 min 4 sec) 
Heartbeat CPU  0 instructions:  594000001 cycles: 1462968984 heartbeat IPC: 0.55979 cumulative IPC: 0.35667 (Simulation time: 0 hr 33 min 7 sec) 
Heartbeat CPU  0 instructions:  595000002 cycles: 1464793040 heartbeat IPC: 0.54823 cumulative IPC: 0.35692 (Simulation time: 0 hr 33 min 10 sec) 
Heartbeat CPU  0 instructions:  596000000 cycles: 1466587204 heartbeat IPC: 0.55736 cumulative IPC: 0.35718 (Simulation time: 0 hr 33 min 13 sec) 
Heartbeat CPU  0 instructions:  597000003 cycles: 1468766570 heartbeat IPC: 0.45885 cumulative IPC: 0.35734 (Simulation time: 0 hr 33 min 17 sec) 
Heartbeat CPU  0 instructions:  598000002 cycles: 1470291162 heartbeat IPC: 0.65591 cumulative IPC: 0.35767 (Simulation time: 0 hr 33 min 20 sec) 
Heartbeat CPU  0 instructions:  599000002 cycles: 1471809872 heartbeat IPC: 0.65845 cumulative IPC: 0.35800 (Simulation time: 0 hr 33 min 22 sec) 
Heartbeat CPU  0 instructions:  600000000 cycles: 1473334937 heartbeat IPC: 0.65571 cumulative IPC: 0.35832 (Simulation time: 0 hr 33 min 25 sec) 
Finished CPU 0 instructions: 500000000 cycles: 1395389498 cumulative IPC: 0.35832 (Simulation time: 0 hr 33 min 25 sec) 

ChampSim completed all CPUs

[ROI Statistics]
Core_0_instructions 500000000
Core_0_cycles 1395389498
Core_0_IPC 0.35832

Core_0_branch_prediction_accuracy 99.79948
Core_0_branch_MPKI 0.03552
Core_0_average_ROB_occupancy_at_mispredict 248.32389

Core_0_L1D_total_access 242568832
Core_0_L1D_total_hit 230290714
Core_0_L1D_total_miss 12278118
Core_0_L1D_loads 218303431
Core_0_L1D_load_hit 206200827
Core_0_L1D_load_miss 12102604
Core_0_L1D_RFOs 24265401
Core_0_L1D_RFO_hit 24089887
Core_0_L1D_RFO_miss 175514
Core_0_L1D_prefetches 0
Core_0_L1D_prefetch_hit 0
Core_0_L1D_prefetch_miss 0
Core_0_L1D_writebacks 0
Core_0_L1D_writeback_hit 0
Core_0_L1D_writeback_miss 0
Core_0_L1D_prefetch_requested 0
Core_0_L1D_prefetch_dropped 0
Core_0_L1D_prefetch_issued 0
Core_0_L1D_prefetch_filled 0
Core_0_L1D_prefetch_useful 0
Core_0_L1D_prefetch_useless 0
Core_0_L1D_prefetch_late 0
Core_0_L1D_average_miss_latency 156.10490

Core_0_L1D_rq_access 258709399
Core_0_L1D_rq_forward 0
Core_0_L1D_rq_merged 39539765
Core_0_L1D_rq_to_cache 219169634
Core_0_L1D_rq_full 0

Core_0_L1D_wq_access 25182875
Core_0_L1D_wq_forward 0
Core_0_L1D_wq_merged 212769
Core_0_L1D_wq_to_cache 24970106
Core_0_L1D_wq_full 1443051

Core_0_L1D_pq_access 0
Core_0_L1D_pq_forward 0
Core_0_L1D_pq_merged 0
Core_0_L1D_pq_to_cache 0
Core_0_L1D_pq_full 0

Core_0_L1D_acc_epochs 1390052
Core_0_L1D_acc_level_0 1390052
Core_0_L1D_acc_level_1 0
Core_0_L1D_acc_level_2 0
Core_0_L1D_acc_level_3 0
Core_0_L1D_acc_level_4 0
Core_0_L1D_acc_level_5 0
Core_0_L1D_acc_level_6 0
Core_0_L1D_acc_level_7 0
Core_0_L1D_acc_level_8 0
Core_0_L1D_acc_level_9 0

Core_0_L1I_total_access 131757856
Core_0_L1I_total_hit 131757207
Core_0_L1I_total_miss 649
Core_0_L1I_loads 131757856
Core_0_L1I_load_hit 131757207
Core_0_L1I_load_miss 649
Core_0_L1I_RFOs 0
Core_0_L1I_RFO_hit 0
Core_0_L1I_RFO_miss 0
Core_0_L1I_prefetches 0
Core_0_L1I_prefetch_hit 0
Core_0_L1I_prefetch_miss 0
Core_0_L1I_writebacks 0
Core_0_L1I_writeback_hit 0
Core_0_L1I_writeback_miss 0
Core_0_L1I_prefetch_requested 0
Core_0_L1I_prefetch_dropped 0
Core_0_L1I_prefetch_issued 0
Core_0_L1I_prefetch_filled 0
Core_0_L1I_prefetch_useful 0
Core_0_L1I_prefetch_useless 0
Core_0_L1I_prefetch_late 0
Core_0_L1I_average_miss_latency 1286.34977

Core_0_L1I_rq_access 500000002
Core_0_L1I_rq_forward 0
Core_0_L1I_rq_merged 368241684
Core_0_L1I_rq_to_cache 131758318
Core_0_L1I_rq_full 0

Core_0_L1I_wq_access 0
Core_0_L1I_wq_forward 0
Core_0_L1I_wq_merged 0
Core_0_L1I_wq_to_cache 0
Core_0_L1I_wq_full 0

Core_0_L1I_pq_access 0
Core_0_L1I_pq_forward 0
Core_0_L1I_pq_merged 0
Core_0_L1I_pq_to_cache 0
Core_0_L1I_pq_full 0

Core_0_L1I_acc_epochs 1390052
Core_0_L1I_acc_level_0 1390052
Core_0_L1I_acc_level_1 0
Core_0_L1I_acc_level_2 0
Core_0_L1I_acc_level_3 0
Core_0_L1I_acc_level_4 0
Core_0_L1I_acc_level_5 0
Core_0_L1I_acc_level_6 0
Core_0_L1I_acc_level_7 0
Core_0_L1I_acc_level_8 0
Core_0_L1I_acc_level_9 0

Core_0_L2C_total_access 23858325
Core_0_L2C_total_hit 19390336
Core_0_L2C_total_miss 4467989
Core_0_L2C_loads 12102955
Core_0_L2C_load_hit 8955500
Core_0_L2C_load_miss 3147455
Core_0_L2C_RFOs 175473
Core_0_L2C_RFO_hit 5541
Core_0_L2C_RFO_miss 169932
Core_0_L2C_prefetches 8959728
Core_0_L2C_prefetch_hit 7809677
Core_0_L2C_prefetch_miss 1150051
Core_0_L2C_writebacks 2620169
Core_0_L2C_writeback_hit 2619618
Core_0_L2C_writeback_miss 551
Core_0_L2C_prefetch_requested 21889183
Core_0_L2C_prefetch_dropped 5609
Core_0_L2C_prefetch_issued 21883574
Core_0_L2C_prefetch_filled 1541917
Core_0_L2C_prefetch_useful 1379124
Core_0_L2C_prefetch_useless 162705
Core_0_L2C_prefetch_late 87826
Core_0_L2C_average_miss_latency 446.77879

Core_0_L2C_rq_access 12278767
Core_0_L2C_rq_forward 0
Core_0_L2C_rq_merged 0
Core_0_L2C_rq_to_cache 12278428
Core_0_L2C_rq_full 0

Core_0_L2C_wq_access 2620169
Core_0_L2C_wq_forward 339
Core_0_L2C_wq_merged 0
Core_0_L2C_wq_to_cache 2620169
Core_0_L2C_wq_full 0

Core_0_L2C_pq_access 21883574
Core_0_L2C_pq_forward 0
Core_0_L2C_pq_merged 72100
Core_0_L2C_pq_to_cache 21811474
Core_0_L2C_pq_full 0

Core_0_L2C_acc_epochs 1390052
Core_0_L2C_acc_level_0 710701
Core_0_L2C_acc_level_1 108553
Core_0_L2C_acc_level_2 92145
Core_0_L2C_acc_level_3 51407
Core_0_L2C_acc_level_4 36017
Core_0_L2C_acc_level_5 87631
Core_0_L2C_acc_level_6 39934
Core_0_L2C_acc_level_7 43824
Core_0_L2C_acc_level_8 44938
Core_0_L2C_acc_level_9 174902

Core_0_LLC_total_access 13853660
Core_0_LLC_total_hit 9141213
Core_0_LLC_total_miss 4712447
Core_0_LLC_loads 3059607
Core_0_LLC_load_hit 1569342
Core_0_LLC_load_miss 1490265
Core_0_LLC_RFOs 169932
Core_0_LLC_RFO_hit 145042
Core_0_LLC_RFO_miss 24890
Core_0_LLC_prefetches 9484802
Core_0_LLC_prefetch_hit 6395802
Core_0_LLC_prefetch_miss 3089000
Core_0_LLC_writebacks 1139319
Core_0_LLC_writeback_hit 1031027
Core_0_LLC_writeback_miss 108292
Core_0_LLC_prefetch_requested 0
Core_0_LLC_prefetch_dropped 0
Core_0_LLC_prefetch_issued 0
Core_0_LLC_prefetch_filled 3761374
Core_0_LLC_prefetch_useful 1198252
Core_0_LLC_prefetch_useless 2552412
Core_0_LLC_prefetch_late 82167
Core_0_LLC_average_miss_latency 1944.18083

Core_0_LLC_rq_access 3229561
Core_0_LLC_rq_forward 0
Core_0_LLC_rq_merged 0
Core_0_LLC_rq_to_cache 3229539
Core_0_LLC_rq_full 0

Core_0_LLC_wq_access 1139319
Core_0_LLC_wq_forward 511
Core_0_LLC_wq_merged 0
Core_0_LLC_wq_to_cache 1139319
Core_0_LLC_wq_full 0

Core_0_LLC_pq_access 13549816
Core_0_LLC_pq_forward 0
Core_0_LLC_pq_merged 79367
Core_0_LLC_pq_to_cache 13469960
Core_0_LLC_pq_full 0

Core_0_LLC_acc_epochs 1438804
Core_0_LLC_acc_level_0 735613
Core_0_LLC_acc_level_1 155909
Core_0_LLC_acc_level_2 142997
Core_0_LLC_acc_level_3 96053
Core_0_LLC_acc_level_4 53957
Core_0_LLC_acc_level_5 70534
Core_0_LLC_acc_level_6 36071
Core_0_LLC_acc_level_7 27686
Core_0_LLC_acc_level_8 19953
Core_0_LLC_acc_level_9 100031

Core_0_major_page_fault 0
Core_0_minor_page_fault 102074

spp.pref.total 21889183
spp.pref.at_L2 3397219
spp.pref.at_LLC 18491964

spp.depth.max 11
spp.depth.min 0
spp.depth.avg 2

spp.breadth.max 2
spp.breadth.min 0
spp.breadth.avg 0

delta_1 14710893
delta_-1 3363777
delta_11 3138741
delta_23 2148117
delta_12 1611427
delta_22 798154
delta_29 214444
delta_30 151208
delta_-29 105965
delta_2 6080
delta_3 3383
delta_4 2969
delta_-2 2963
delta_5 2937
delta_-3 1507
delta_6 756
delta_7 563
delta_-28 381
delta_-9 315
delta_-4 303
delta_8 295
delta_-30 266
delta_9 223
delta_15 193
delta_-5 127
delta_-6 120
delta_-8 120
delta_59 85
delta_-7 68
delta_-25 59
delta_-26 58
delta_-49 55
delta_-37 48
delta_-12 45
delta_14 12
delta_10 6
delta_-23 5
delta_-18 4
delta_-22 4
delta_-41 3
delta_-17 2
delta_-32 1

depth_1_delta_1 4302807
depth_1_delta_23 1743869
depth_1_delta_11 1552854
depth_1_delta_12 852030
depth_1_delta_-1 831760
depth_1_delta_22 589381
depth_1_delta_29 194169
depth_1_delta_30 73815
depth_1_delta_-29 30384
depth_1_delta_2 5608
depth_1_delta_3 3187
depth_1_delta_4 2508
depth_1_delta_-2 2389
depth_1_delta_5 2366
depth_1_delta_-3 887
depth_1_delta_6 589
depth_1_delta_7 533
depth_1_delta_-4 296
depth_1_delta_8 283
depth_1_delta_-9 279
depth_1_delta_-28 268
depth_1_delta_-30 264
depth_1_delta_9 209
depth_1_delta_15 192
depth_1_delta_-5 127
depth_1_delta_-6 120
depth_1_delta_-8 120
depth_1_delta_59 85
depth_1_delta_-7 68
depth_1_delta_-25 59
depth_1_delta_-26 58
depth_1_delta_-49 55
depth_1_delta_-37 48
depth_1_delta_-12 45
depth_1_delta_14 12
depth_1_delta_10 6
depth_1_delta_-23 5
depth_1_delta_-18 4
depth_1_delta_-22 4
depth_1_delta_-41 3
depth_1_delta_-17 2
depth_1_delta_-32 1
depth_2_delta_1 3609922
depth_2_delta_11 1049978
depth_2_delta_-1 803007
depth_2_delta_12 537775
depth_2_delta_23 404136
depth_2_delta_22 208676
depth_2_delta_30 30940
depth_2_delta_-29 27558
depth_2_delta_29 20219
depth_2_delta_5 560
depth_2_delta_-2 541
depth_2_delta_-3 506
depth_2_delta_2 460
depth_2_delta_4 361
depth_2_delta_3 183
depth_2_delta_6 129
depth_2_delta_-28 113
depth_2_delta_-9 36
depth_2_delta_7 29
depth_2_delta_9 14
depth_2_delta_8 12
depth_2_delta_-4 7
depth_2_delta_-30 2
depth_2_delta_15 1
depth_3_delta_1 2773231
depth_3_delta_-1 776247
depth_3_delta_11 451772
depth_3_delta_12 197683
depth_3_delta_-29 22121
depth_3_delta_30 21946
depth_3_delta_23 109
depth_3_delta_-3 103
depth_3_delta_4 99
depth_3_delta_22 67
depth_3_delta_29 56
depth_3_delta_6 38
depth_3_delta_-2 33
depth_3_delta_3 13
depth_3_delta_2 12
depth_3_delta_5 11
depth_3_delta_7 1
depth_4_delta_1 2290311
depth_4_delta_-1 689883
depth_4_delta_11 82959
depth_4_delta_12 22789
depth_4_delta_-29 16582
depth_4_delta_30 15808
depth_4_delta_22 30
depth_4_delta_-3 11
depth_4_delta_23 3
depth_4_delta_4 1
depth_5_delta_1 1228289
depth_5_delta_-1 260050
depth_5_delta_-29 8358
depth_5_delta_30 7886
depth_5_delta_11 1178
depth_5_delta_12 1150
depth_6_delta_1 270553
depth_6_delta_-1 2830
depth_6_delta_-29 961
depth_6_delta_30 813
depth_7_delta_1 115400
depth_7_delta_-29 1
depth_8_delta_1 72309
depth_9_delta_1 37396
depth_10_delta_1 10616
depth_11_delta_1 59

Channel_0_RQ_row_buffer_hit 1301773
Channel_0_RQ_row_buffer_miss 3302366
Channel_0_WQ_row_buffer_hit 118122
Channel_0_WQ_row_buffer_miss 675850
Channel_0_WQ_full 8390
Channel_0_dbus_congested 5077338

avg_congested_cycle 195

DRAM_bw_pochs 5755215
DRAM_bw_level_0 2833334
DRAM_bw_level_1 0
DRAM_bw_level_2 0
DRAM_bw_level_3 2921881
