*************************************************
   ChampSim Multicore Out-of-Order Simulator
   Last compiled: Dec 11 2024 17:59:53
*************************************************
parsing config file: /home/functionmain/桌面/Pythia/config/pythia.ini

trace_0 /home/functionmain/桌面/Pythia/traces/459.GemsFDTD-1211B.champsimtrace.xz
adding L2C_PREFETCHER: Scooby
Initialize SHIP state
warmup_instructions 100000000
simulation_instructions 500000000
champsim_seed 263
measure_ipc 0
measure_ipc_epoch 1000
measure_dram_bw 1
measure_dram_bw_epoch 256
measure_cache_acc 1
measure_cache_acc_epoch 1024
l1d_perfect 0
l2c_perfect 0
llc_perfect 0
l1d_semi_perfect 0
l2c_semi_perfect 0
llc_semi_perfect 0
semi_perfect_cache_page_buffer_size 64

num_cpus 1
cpu_freq 4000
dram_io_freq 300
page_size 4096
block_size 64
max_read_per_cycle 8
max_fill_per_cycle 1
dram_channels 1
log2_dram_channels 0
dram_ranks 1
dram_banks 8
dram_rows 65536
dram_columns 128
dram_row_size 8
dram_size 4096
dram_pages 1048576

fetch_width 6
decode_width 6
exec_width 4
lq_width 2
sq_width 2
retire_width 4
scheduler_size 128
branch_mispredict_penalty 20
rob_size 256
lq_size 72
sq_size 56
num_instr_destinations_sparc 4
num_instr_destinations 2
num_instr_sources 4

itlb_set 16
itlb_way 8
itlb_rq_size 16
itlb_wq_size 16
itlb_pq_size 0
itlb_mshr_size 8
itlb_latency 1

dtlb_set 16
dtlb_way 4
dtlb_rq_size 16
dtlb_wq_size 16
dtlb_pq_size 0
dtlb_mshr_size 8
dtlb_latency 1

stlb_set 128
stlb_way 12
stlb_rq_size 32
stlb_wq_size 32
stlb_pq_size 0
stlb_mshr_size 16
stlb_latency 8

l1i_size 32
l1i_set 64
l1i_way 8
l1i_rq_size 64
l1i_wq_size 64
l1i_pq_size 8
l1i_mshr_size 8
l1i_latency 1

l1d_size 32
l1d_set 64
l1d_way 8
l1d_rq_size 64
l1d_wq_size 64
l1d_pq_size 8
l1d_mshr_size 16
l1d_latency 4

l2c_size 256
l2c_set 512
l2c_way 8
l2c_rq_size 32
l2c_wq_size 32
l2c_pq_size 32
l2c_mshr_size 32
l2c_latency 10

llc_size 2048
llc_set 2048
llc_way 16
llc_rq_size 32
llc_wq_size 32
llc_pq_size 32
llc_mshr_size 64
llc_latency 20

dram_channel_width 8
dram_wq_size 64
dram_rq_size 64
tRP 15
tRCD 15
tCAS 12.5
dram_dbus_turn_around_time 30
dram_write_high_wm 56
dram_write_low_wm 48
min_dram_writes_per_switch 16
dram_mtps 300
dram_dbus_return_time 106

scooby_alpha 0.0065088
scooby_gamma 0.556301
scooby_epsilon 0.00182284
scooby_state_num_bits 10
scooby_max_states 1024
scooby_seed 200
scooby_policy EGreedy
scooby_learning_type SARSA
scooby_actions 1,3,4,5,10,11,12,22,23,30,32,-1,-3,-6,0,
scooby_max_actions 15
scooby_pt_size 256
scooby_st_size 64
scooby_max_pcs 5
scooby_max_offsets 5
scooby_max_deltas 5
scooby_reward_none -4
scooby_reward_incorrect -8
scooby_reward_correct_untimely 12
scooby_reward_correct_timely 20
scooby_brain_zero_init 0
scooby_enable_reward_all 0
scooby_enable_track_multiple 0
scooby_enable_reward_out_of_bounds 1
scooby_reward_out_of_bounds -12
scooby_state_type 1
scooby_state_hash_type 11
scooby_access_debug 0
scooby_print_access_debug 0
scooby_print_access_debug_pc deadbeef
scooby_print_access_debug_pc_count 0
scooby_print_trace 0
scooby_enable_state_action_stats 1
scooby_enable_reward_tracker_hit 0
scooby_reward_tracker_hit -2
scooby_enable_featurewise_engine 1
scooby_pref_degree 1
scooby_enable_dyn_degree 1
scooby_max_to_avg_q_thresholds 0.5,1,2,
scooby_dyn_degrees 1,2,4,4,
scooby_multi_deg_select_type 2
scooby_last_pref_offset_conf_thresholds 1,3,8,
scooby_dyn_degrees_type2 1,2,4,6,
scooby_action_tracker_size 2
scooby_high_bw_thresh 4
scooby_enable_hbw_reward 1
scooby_reward_hbw_correct_timely 20
scooby_reward_hbw_correct_untimely 12
scooby_reward_hbw_incorrect -14
scooby_reward_hbw_none -2
scooby_reward_hbw_out_of_bounds -12
scooby_reward_hbw_tracker_hit -2
scooby_last_pref_offset_conf_thresholds_hbw 1,3,8,
scooby_dyn_degrees_type2_hbw 1,2,4,6,

le_enable_trace 0
le_trace_interval 0
le_trace_file_name 
le_trace_state 0
le_enable_score_plot 0
le_plot_file_name 
le_plot_actions 
le_enable_action_trace 0
le_action_trace_interval 0
le_action_trace_name 
le_enable_action_plot 0

le_featurewise_active_features PC, PC_Delta
le_featurewise_num_tilings 3,3,
le_featurewise_num_tiles 128,128,
le_featurewise_hash_types 2,2,
le_featurewise_enable_tiling_offset 1,1,
le_featurewise_max_q_thresh 0.5
le_featurewise_enable_action_fallback 1
le_featurewise_feature_weights 1,1,
le_featurewise_enable_dynamic_weight 0
le_featurewise_weight_gradient 0.001
le_featurewise_disable_adjust_weight_all_features_align 1
le_featurewise_selective_update 0
le_featurewise_pooling_type 2
le_featurewise_enable_dyn_action_fallback 1
le_featurewise_bw_acc_check_level 1
le_featurewise_acc_thresh 2
le_featurewise_enable_trace 0
le_featurewise_trace_feature_type 0
le_featurewise_trace_feature 
le_featurewise_trace_interval 0
le_featurewise_trace_record_count 0
le_featurewise_trace_file_name 
le_featurewise_enable_score_plot 0
le_featurewise_plot_actions 
le_featurewise_plot_file_name 


Heartbeat CPU  0 instructions:    1000003 cycles:     792467 heartbeat IPC: 1.26189 cumulative IPC: 1.26189 (Simulation time: 0 hr 0 min 2 sec) 
Heartbeat CPU  0 instructions:    2000002 cycles:    1584262 heartbeat IPC: 1.26295 cumulative IPC: 1.26242 (Simulation time: 0 hr 0 min 5 sec) 
Heartbeat CPU  0 instructions:    3000003 cycles:    2376124 heartbeat IPC: 1.26285 cumulative IPC: 1.26256 (Simulation time: 0 hr 0 min 8 sec) 
Heartbeat CPU  0 instructions:    4000000 cycles:    3168016 heartbeat IPC: 1.26279 cumulative IPC: 1.26262 (Simulation time: 0 hr 0 min 10 sec) 
Heartbeat CPU  0 instructions:    5000000 cycles:    3959960 heartbeat IPC: 1.26272 cumulative IPC: 1.26264 (Simulation time: 0 hr 0 min 13 sec) 
Heartbeat CPU  0 instructions:    6000002 cycles:    4751853 heartbeat IPC: 1.26280 cumulative IPC: 1.26267 (Simulation time: 0 hr 0 min 16 sec) 
Heartbeat CPU  0 instructions:    7000000 cycles:    5543612 heartbeat IPC: 1.26301 cumulative IPC: 1.26271 (Simulation time: 0 hr 0 min 19 sec) 
Heartbeat CPU  0 instructions:    8000000 cycles:    6335596 heartbeat IPC: 1.26265 cumulative IPC: 1.26271 (Simulation time: 0 hr 0 min 21 sec) 
Heartbeat CPU  0 instructions:    9000000 cycles:    7127486 heartbeat IPC: 1.26280 cumulative IPC: 1.26272 (Simulation time: 0 hr 0 min 24 sec) 
Heartbeat CPU  0 instructions:   10000001 cycles:    7919159 heartbeat IPC: 1.26315 cumulative IPC: 1.26276 (Simulation time: 0 hr 0 min 27 sec) 
Heartbeat CPU  0 instructions:   11000000 cycles:    8710765 heartbeat IPC: 1.26325 cumulative IPC: 1.26281 (Simulation time: 0 hr 0 min 30 sec) 
Heartbeat CPU  0 instructions:   12000000 cycles:    9502642 heartbeat IPC: 1.26282 cumulative IPC: 1.26281 (Simulation time: 0 hr 0 min 32 sec) 
Heartbeat CPU  0 instructions:   13000000 cycles:   10294560 heartbeat IPC: 1.26276 cumulative IPC: 1.26280 (Simulation time: 0 hr 0 min 35 sec) 
Heartbeat CPU  0 instructions:   14000002 cycles:   11086374 heartbeat IPC: 1.26293 cumulative IPC: 1.26281 (Simulation time: 0 hr 0 min 38 sec) 
Heartbeat CPU  0 instructions:   15000000 cycles:   11878308 heartbeat IPC: 1.26273 cumulative IPC: 1.26281 (Simulation time: 0 hr 0 min 41 sec) 
Heartbeat CPU  0 instructions:   16000000 cycles:   12670125 heartbeat IPC: 1.26292 cumulative IPC: 1.26281 (Simulation time: 0 hr 0 min 43 sec) 
Heartbeat CPU  0 instructions:   17000001 cycles:   13462085 heartbeat IPC: 1.26269 cumulative IPC: 1.26281 (Simulation time: 0 hr 0 min 46 sec) 
Heartbeat CPU  0 instructions:   18000002 cycles:   14253912 heartbeat IPC: 1.26290 cumulative IPC: 1.26281 (Simulation time: 0 hr 0 min 49 sec) 
Heartbeat CPU  0 instructions:   19000000 cycles:   15045800 heartbeat IPC: 1.26280 cumulative IPC: 1.26281 (Simulation time: 0 hr 0 min 51 sec) 
Heartbeat CPU  0 instructions:   20000000 cycles:   15837353 heartbeat IPC: 1.26334 cumulative IPC: 1.26284 (Simulation time: 0 hr 0 min 54 sec) 
Heartbeat CPU  0 instructions:   21000000 cycles:   16629001 heartbeat IPC: 1.26319 cumulative IPC: 1.26285 (Simulation time: 0 hr 0 min 57 sec) 
Heartbeat CPU  0 instructions:   22000003 cycles:   17420860 heartbeat IPC: 1.26285 cumulative IPC: 1.26285 (Simulation time: 0 hr 0 min 59 sec) 
Heartbeat CPU  0 instructions:   23000000 cycles:   18212753 heartbeat IPC: 1.26279 cumulative IPC: 1.26285 (Simulation time: 0 hr 1 min 2 sec) 
Heartbeat CPU  0 instructions:   24000000 cycles:   19004618 heartbeat IPC: 1.26284 cumulative IPC: 1.26285 (Simulation time: 0 hr 1 min 5 sec) 
Heartbeat CPU  0 instructions:   25000001 cycles:   19796576 heartbeat IPC: 1.26269 cumulative IPC: 1.26284 (Simulation time: 0 hr 1 min 8 sec) 
Heartbeat CPU  0 instructions:   26000002 cycles:   20588452 heartbeat IPC: 1.26283 cumulative IPC: 1.26284 (Simulation time: 0 hr 1 min 10 sec) 
Heartbeat CPU  0 instructions:   27000001 cycles:   21380226 heartbeat IPC: 1.26299 cumulative IPC: 1.26285 (Simulation time: 0 hr 1 min 13 sec) 
Heartbeat CPU  0 instructions:   28000000 cycles:   22172199 heartbeat IPC: 1.26267 cumulative IPC: 1.26284 (Simulation time: 0 hr 1 min 16 sec) 
Heartbeat CPU  0 instructions:   29000001 cycles:   22964062 heartbeat IPC: 1.26285 cumulative IPC: 1.26284 (Simulation time: 0 hr 1 min 19 sec) 
Heartbeat CPU  0 instructions:   30000002 cycles:   23755837 heartbeat IPC: 1.26299 cumulative IPC: 1.26285 (Simulation time: 0 hr 1 min 21 sec) 
Heartbeat CPU  0 instructions:   31000001 cycles:   24547546 heartbeat IPC: 1.26309 cumulative IPC: 1.26286 (Simulation time: 0 hr 1 min 24 sec) 
Heartbeat CPU  0 instructions:   32000000 cycles:   25339089 heartbeat IPC: 1.26335 cumulative IPC: 1.26287 (Simulation time: 0 hr 1 min 27 sec) 
Heartbeat CPU  0 instructions:   33000001 cycles:   26131064 heartbeat IPC: 1.26267 cumulative IPC: 1.26286 (Simulation time: 0 hr 1 min 30 sec) 
Heartbeat CPU  0 instructions:   34000003 cycles:   26922880 heartbeat IPC: 1.26292 cumulative IPC: 1.26287 (Simulation time: 0 hr 1 min 32 sec) 
Heartbeat CPU  0 instructions:   35000001 cycles:   27714740 heartbeat IPC: 1.26285 cumulative IPC: 1.26287 (Simulation time: 0 hr 1 min 35 sec) 
Heartbeat CPU  0 instructions:   36000000 cycles:   28506703 heartbeat IPC: 1.26268 cumulative IPC: 1.26286 (Simulation time: 0 hr 1 min 38 sec) 
Heartbeat CPU  0 instructions:   37000000 cycles:   29298641 heartbeat IPC: 1.26273 cumulative IPC: 1.26286 (Simulation time: 0 hr 1 min 40 sec) 
Heartbeat CPU  0 instructions:   38000000 cycles:   30090445 heartbeat IPC: 1.26294 cumulative IPC: 1.26286 (Simulation time: 0 hr 1 min 43 sec) 
Heartbeat CPU  0 instructions:   39000001 cycles:   30882265 heartbeat IPC: 1.26291 cumulative IPC: 1.26286 (Simulation time: 0 hr 1 min 46 sec) 
Heartbeat CPU  0 instructions:   40000000 cycles:   31665271 heartbeat IPC: 1.27713 cumulative IPC: 1.26321 (Simulation time: 0 hr 1 min 49 sec) 
Heartbeat CPU  0 instructions:   41000001 cycles:   32438526 heartbeat IPC: 1.29324 cumulative IPC: 1.26393 (Simulation time: 0 hr 1 min 53 sec) 
Heartbeat CPU  0 instructions:   42000003 cycles:   33211430 heartbeat IPC: 1.29382 cumulative IPC: 1.26462 (Simulation time: 0 hr 1 min 56 sec) 
Heartbeat CPU  0 instructions:   43000001 cycles:   33987586 heartbeat IPC: 1.28840 cumulative IPC: 1.26517 (Simulation time: 0 hr 1 min 59 sec) 
Heartbeat CPU  0 instructions:   44000000 cycles:   34779129 heartbeat IPC: 1.26335 cumulative IPC: 1.26513 (Simulation time: 0 hr 2 min 2 sec) 
Heartbeat CPU  0 instructions:   45000001 cycles:   35570506 heartbeat IPC: 1.26362 cumulative IPC: 1.26509 (Simulation time: 0 hr 2 min 5 sec) 
Heartbeat CPU  0 instructions:   46000003 cycles:   36362120 heartbeat IPC: 1.26324 cumulative IPC: 1.26505 (Simulation time: 0 hr 2 min 8 sec) 
Heartbeat CPU  0 instructions:   47000001 cycles:   37153456 heartbeat IPC: 1.26368 cumulative IPC: 1.26502 (Simulation time: 0 hr 2 min 11 sec) 
Heartbeat CPU  0 instructions:   48000000 cycles:   37944891 heartbeat IPC: 1.26353 cumulative IPC: 1.26499 (Simulation time: 0 hr 2 min 13 sec) 
Heartbeat CPU  0 instructions:   49000001 cycles:   38736124 heartbeat IPC: 1.26385 cumulative IPC: 1.26497 (Simulation time: 0 hr 2 min 16 sec) 
Heartbeat CPU  0 instructions:   50000003 cycles:   39527315 heartbeat IPC: 1.26392 cumulative IPC: 1.26495 (Simulation time: 0 hr 2 min 19 sec) 
Heartbeat CPU  0 instructions:   51000001 cycles:   40318865 heartbeat IPC: 1.26334 cumulative IPC: 1.26492 (Simulation time: 0 hr 2 min 22 sec) 
Heartbeat CPU  0 instructions:   52000000 cycles:   41110355 heartbeat IPC: 1.26344 cumulative IPC: 1.26489 (Simulation time: 0 hr 2 min 24 sec) 
Heartbeat CPU  0 instructions:   53000003 cycles:   41901956 heartbeat IPC: 1.26327 cumulative IPC: 1.26486 (Simulation time: 0 hr 2 min 27 sec) 
Heartbeat CPU  0 instructions:   54000002 cycles:   42693469 heartbeat IPC: 1.26340 cumulative IPC: 1.26483 (Simulation time: 0 hr 2 min 30 sec) 
Heartbeat CPU  0 instructions:   55000001 cycles:   43484840 heartbeat IPC: 1.26363 cumulative IPC: 1.26481 (Simulation time: 0 hr 2 min 32 sec) 
Heartbeat CPU  0 instructions:   56000000 cycles:   44276123 heartbeat IPC: 1.26377 cumulative IPC: 1.26479 (Simulation time: 0 hr 2 min 35 sec) 
Heartbeat CPU  0 instructions:   57000000 cycles:   45067703 heartbeat IPC: 1.26330 cumulative IPC: 1.26476 (Simulation time: 0 hr 2 min 38 sec) 
Heartbeat CPU  0 instructions:   58000002 cycles:   45859043 heartbeat IPC: 1.26368 cumulative IPC: 1.26475 (Simulation time: 0 hr 2 min 41 sec) 
Heartbeat CPU  0 instructions:   59000000 cycles:   46650553 heartbeat IPC: 1.26341 cumulative IPC: 1.26472 (Simulation time: 0 hr 2 min 43 sec) 
Heartbeat CPU  0 instructions:   60000000 cycles:   47441885 heartbeat IPC: 1.26369 cumulative IPC: 1.26471 (Simulation time: 0 hr 2 min 46 sec) 
Heartbeat CPU  0 instructions:   61000000 cycles:   48233047 heartbeat IPC: 1.26396 cumulative IPC: 1.26469 (Simulation time: 0 hr 2 min 49 sec) 
Heartbeat CPU  0 instructions:   62000002 cycles:   49024722 heartbeat IPC: 1.26315 cumulative IPC: 1.26467 (Simulation time: 0 hr 2 min 51 sec) 
Heartbeat CPU  0 instructions:   63000000 cycles:   49816213 heartbeat IPC: 1.26344 cumulative IPC: 1.26465 (Simulation time: 0 hr 2 min 54 sec) 
Heartbeat CPU  0 instructions:   64000000 cycles:   50607629 heartbeat IPC: 1.26356 cumulative IPC: 1.26463 (Simulation time: 0 hr 2 min 57 sec) 
Heartbeat CPU  0 instructions:   65000000 cycles:   51399216 heartbeat IPC: 1.26329 cumulative IPC: 1.26461 (Simulation time: 0 hr 2 min 59 sec) 
Heartbeat CPU  0 instructions:   66000003 cycles:   52190634 heartbeat IPC: 1.26356 cumulative IPC: 1.26459 (Simulation time: 0 hr 3 min 2 sec) 
Heartbeat CPU  0 instructions:   67000000 cycles:   52982034 heartbeat IPC: 1.26358 cumulative IPC: 1.26458 (Simulation time: 0 hr 3 min 5 sec) 
Heartbeat CPU  0 instructions:   68000000 cycles:   53773292 heartbeat IPC: 1.26381 cumulative IPC: 1.26457 (Simulation time: 0 hr 3 min 8 sec) 
Heartbeat CPU  0 instructions:   69000001 cycles:   54564780 heartbeat IPC: 1.26344 cumulative IPC: 1.26455 (Simulation time: 0 hr 3 min 10 sec) 
Heartbeat CPU  0 instructions:   70000002 cycles:   55356048 heartbeat IPC: 1.26380 cumulative IPC: 1.26454 (Simulation time: 0 hr 3 min 13 sec) 
Heartbeat CPU  0 instructions:   71000001 cycles:   56147504 heartbeat IPC: 1.26349 cumulative IPC: 1.26453 (Simulation time: 0 hr 3 min 16 sec) 
Heartbeat CPU  0 instructions:   72000000 cycles:   56938700 heartbeat IPC: 1.26391 cumulative IPC: 1.26452 (Simulation time: 0 hr 3 min 18 sec) 
Heartbeat CPU  0 instructions:   73000003 cycles:   57730491 heartbeat IPC: 1.26296 cumulative IPC: 1.26450 (Simulation time: 0 hr 3 min 21 sec) 
Heartbeat CPU  0 instructions:   74000003 cycles:   58521813 heartbeat IPC: 1.26371 cumulative IPC: 1.26449 (Simulation time: 0 hr 3 min 24 sec) 
Heartbeat CPU  0 instructions:   75000001 cycles:   59313200 heartbeat IPC: 1.26360 cumulative IPC: 1.26447 (Simulation time: 0 hr 3 min 26 sec) 
Heartbeat CPU  0 instructions:   76000000 cycles:   60104785 heartbeat IPC: 1.26329 cumulative IPC: 1.26446 (Simulation time: 0 hr 3 min 29 sec) 
Heartbeat CPU  0 instructions:   77000002 cycles:   60896056 heartbeat IPC: 1.26379 cumulative IPC: 1.26445 (Simulation time: 0 hr 3 min 32 sec) 
Heartbeat CPU  0 instructions:   78000001 cycles:   61687494 heartbeat IPC: 1.26352 cumulative IPC: 1.26444 (Simulation time: 0 hr 3 min 35 sec) 
Heartbeat CPU  0 instructions:   79000000 cycles:   62478812 heartbeat IPC: 1.26371 cumulative IPC: 1.26443 (Simulation time: 0 hr 3 min 37 sec) 
Heartbeat CPU  0 instructions:   80000000 cycles:   63270248 heartbeat IPC: 1.26353 cumulative IPC: 1.26442 (Simulation time: 0 hr 3 min 40 sec) 
Heartbeat CPU  0 instructions:   81000000 cycles:   64061611 heartbeat IPC: 1.26364 cumulative IPC: 1.26441 (Simulation time: 0 hr 3 min 43 sec) 
Heartbeat CPU  0 instructions:   82000002 cycles:   64852908 heartbeat IPC: 1.26375 cumulative IPC: 1.26440 (Simulation time: 0 hr 3 min 45 sec) 
Heartbeat CPU  0 instructions:   83000000 cycles:   65644282 heartbeat IPC: 1.26362 cumulative IPC: 1.26439 (Simulation time: 0 hr 3 min 48 sec) 
Heartbeat CPU  0 instructions:   84000000 cycles:   66435709 heartbeat IPC: 1.26354 cumulative IPC: 1.26438 (Simulation time: 0 hr 3 min 51 sec) 
Heartbeat CPU  0 instructions:   85000000 cycles:   67227130 heartbeat IPC: 1.26355 cumulative IPC: 1.26437 (Simulation time: 0 hr 3 min 54 sec) 
Heartbeat CPU  0 instructions:   86000002 cycles:   68018468 heartbeat IPC: 1.26369 cumulative IPC: 1.26436 (Simulation time: 0 hr 3 min 56 sec) 
Heartbeat CPU  0 instructions:   87000000 cycles:   68809856 heartbeat IPC: 1.26360 cumulative IPC: 1.26435 (Simulation time: 0 hr 3 min 59 sec) 
Heartbeat CPU  0 instructions:   88000000 cycles:   69601104 heartbeat IPC: 1.26383 cumulative IPC: 1.26435 (Simulation time: 0 hr 4 min 2 sec) 
Heartbeat CPU  0 instructions:   89000000 cycles:   70392591 heartbeat IPC: 1.26344 cumulative IPC: 1.26434 (Simulation time: 0 hr 4 min 4 sec) 
Heartbeat CPU  0 instructions:   90000003 cycles:   71183904 heartbeat IPC: 1.26373 cumulative IPC: 1.26433 (Simulation time: 0 hr 4 min 7 sec) 
Heartbeat CPU  0 instructions:   91000000 cycles:   71975166 heartbeat IPC: 1.26380 cumulative IPC: 1.26433 (Simulation time: 0 hr 4 min 10 sec) 
Heartbeat CPU  0 instructions:   92000000 cycles:   72766536 heartbeat IPC: 1.26363 cumulative IPC: 1.26432 (Simulation time: 0 hr 4 min 13 sec) 
Heartbeat CPU  0 instructions:   93000001 cycles:   73557784 heartbeat IPC: 1.26383 cumulative IPC: 1.26431 (Simulation time: 0 hr 4 min 15 sec) 
Heartbeat CPU  0 instructions:   94000001 cycles:   74349282 heartbeat IPC: 1.26343 cumulative IPC: 1.26430 (Simulation time: 0 hr 4 min 18 sec) 
Heartbeat CPU  0 instructions:   95000000 cycles:   75140587 heartbeat IPC: 1.26373 cumulative IPC: 1.26430 (Simulation time: 0 hr 4 min 21 sec) 
Heartbeat CPU  0 instructions:   96000000 cycles:   75931916 heartbeat IPC: 1.26370 cumulative IPC: 1.26429 (Simulation time: 0 hr 4 min 23 sec) 
Heartbeat CPU  0 instructions:   97000003 cycles:   76723431 heartbeat IPC: 1.26340 cumulative IPC: 1.26428 (Simulation time: 0 hr 4 min 26 sec) 
Heartbeat CPU  0 instructions:   98000003 cycles:   77514760 heartbeat IPC: 1.26370 cumulative IPC: 1.26428 (Simulation time: 0 hr 4 min 29 sec) 
Heartbeat CPU  0 instructions:   99000003 cycles:   78306071 heartbeat IPC: 1.26373 cumulative IPC: 1.26427 (Simulation time: 0 hr 4 min 32 sec) 
Heartbeat CPU  0 instructions:  100000000 cycles:   79097342 heartbeat IPC: 1.26379 cumulative IPC: 1.26426 (Simulation time: 0 hr 4 min 34 sec) 

Warmup complete CPU  0 instructions:  100000001 cycles:   79097343 (Simulation time: 0 hr 4 min 34 sec) 

Heartbeat CPU  0 instructions:  101000001 cycles:   81001793 heartbeat IPC: 0.52509 cumulative IPC: 0.52509 (Simulation time: 0 hr 4 min 38 sec) 
Heartbeat CPU  0 instructions:  102000002 cycles:   82909426 heartbeat IPC: 0.52421 cumulative IPC: 0.52465 (Simulation time: 0 hr 4 min 41 sec) 
Heartbeat CPU  0 instructions:  103000003 cycles:   84818248 heartbeat IPC: 0.52388 cumulative IPC: 0.52439 (Simulation time: 0 hr 4 min 45 sec) 
Heartbeat CPU  0 instructions:  104000000 cycles:   86721216 heartbeat IPC: 0.52549 cumulative IPC: 0.52467 (Simulation time: 0 hr 4 min 48 sec) 
Heartbeat CPU  0 instructions:  105000001 cycles:   88632045 heartbeat IPC: 0.52333 cumulative IPC: 0.52440 (Simulation time: 0 hr 4 min 52 sec) 
Heartbeat CPU  0 instructions:  106000002 cycles:   90542976 heartbeat IPC: 0.52331 cumulative IPC: 0.52422 (Simulation time: 0 hr 4 min 55 sec) 
Heartbeat CPU  0 instructions:  107000000 cycles:   92452432 heartbeat IPC: 0.52371 cumulative IPC: 0.52414 (Simulation time: 0 hr 4 min 59 sec) 
Heartbeat CPU  0 instructions:  108000000 cycles:   94366943 heartbeat IPC: 0.52233 cumulative IPC: 0.52392 (Simulation time: 0 hr 5 min 3 sec) 
Heartbeat CPU  0 instructions:  109000000 cycles:   96270150 heartbeat IPC: 0.52543 cumulative IPC: 0.52408 (Simulation time: 0 hr 5 min 6 sec) 
Heartbeat CPU  0 instructions:  110000002 cycles:   98171984 heartbeat IPC: 0.52581 cumulative IPC: 0.52426 (Simulation time: 0 hr 5 min 10 sec) 
Heartbeat CPU  0 instructions:  111000001 cycles:  100071002 heartbeat IPC: 0.52659 cumulative IPC: 0.52447 (Simulation time: 0 hr 5 min 13 sec) 
Heartbeat CPU  0 instructions:  112000000 cycles:  101974246 heartbeat IPC: 0.52542 cumulative IPC: 0.52455 (Simulation time: 0 hr 5 min 17 sec) 
Heartbeat CPU  0 instructions:  113000000 cycles:  103873723 heartbeat IPC: 0.52646 cumulative IPC: 0.52469 (Simulation time: 0 hr 5 min 20 sec) 
Heartbeat CPU  0 instructions:  114000002 cycles:  105785964 heartbeat IPC: 0.52295 cumulative IPC: 0.52457 (Simulation time: 0 hr 5 min 24 sec) 
Heartbeat CPU  0 instructions:  115000002 cycles:  107688195 heartbeat IPC: 0.52570 cumulative IPC: 0.52464 (Simulation time: 0 hr 5 min 28 sec) 
Heartbeat CPU  0 instructions:  116000000 cycles:  109594687 heartbeat IPC: 0.52452 cumulative IPC: 0.52464 (Simulation time: 0 hr 5 min 31 sec) 
Heartbeat CPU  0 instructions:  117000001 cycles:  111502487 heartbeat IPC: 0.52416 cumulative IPC: 0.52461 (Simulation time: 0 hr 5 min 35 sec) 
Heartbeat CPU  0 instructions:  118000000 cycles:  113415646 heartbeat IPC: 0.52270 cumulative IPC: 0.52450 (Simulation time: 0 hr 5 min 38 sec) 
Heartbeat CPU  0 instructions:  119000000 cycles:  115328139 heartbeat IPC: 0.52288 cumulative IPC: 0.52442 (Simulation time: 0 hr 5 min 42 sec) 
Heartbeat CPU  0 instructions:  120000000 cycles:  117236423 heartbeat IPC: 0.52403 cumulative IPC: 0.52440 (Simulation time: 0 hr 5 min 46 sec) 
Heartbeat CPU  0 instructions:  121000003 cycles:  119143719 heartbeat IPC: 0.52430 cumulative IPC: 0.52439 (Simulation time: 0 hr 5 min 49 sec) 
Heartbeat CPU  0 instructions:  122000001 cycles:  121046435 heartbeat IPC: 0.52556 cumulative IPC: 0.52445 (Simulation time: 0 hr 5 min 53 sec) 
Heartbeat CPU  0 instructions:  123000000 cycles:  122959090 heartbeat IPC: 0.52283 cumulative IPC: 0.52437 (Simulation time: 0 hr 5 min 56 sec) 
Heartbeat CPU  0 instructions:  124000000 cycles:  124860352 heartbeat IPC: 0.52597 cumulative IPC: 0.52444 (Simulation time: 0 hr 6 min 0 sec) 
Heartbeat CPU  0 instructions:  125000001 cycles:  126759957 heartbeat IPC: 0.52643 cumulative IPC: 0.52452 (Simulation time: 0 hr 6 min 3 sec) 
Heartbeat CPU  0 instructions:  126000001 cycles:  128681354 heartbeat IPC: 0.52045 cumulative IPC: 0.52436 (Simulation time: 0 hr 6 min 7 sec) 
Heartbeat CPU  0 instructions:  127000003 cycles:  130585320 heartbeat IPC: 0.52522 cumulative IPC: 0.52439 (Simulation time: 0 hr 6 min 11 sec) 
Heartbeat CPU  0 instructions:  128000000 cycles:  132495377 heartbeat IPC: 0.52354 cumulative IPC: 0.52436 (Simulation time: 0 hr 6 min 14 sec) 
Heartbeat CPU  0 instructions:  129000003 cycles:  134405469 heartbeat IPC: 0.52354 cumulative IPC: 0.52434 (Simulation time: 0 hr 6 min 18 sec) 
Heartbeat CPU  0 instructions:  130000001 cycles:  136310647 heartbeat IPC: 0.52488 cumulative IPC: 0.52435 (Simulation time: 0 hr 6 min 21 sec) 
Heartbeat CPU  0 instructions:  131000000 cycles:  138212190 heartbeat IPC: 0.52589 cumulative IPC: 0.52440 (Simulation time: 0 hr 6 min 25 sec) 
Heartbeat CPU  0 instructions:  132000000 cycles:  140121438 heartbeat IPC: 0.52377 cumulative IPC: 0.52438 (Simulation time: 0 hr 6 min 28 sec) 
Heartbeat CPU  0 instructions:  133000000 cycles:  142023106 heartbeat IPC: 0.52585 cumulative IPC: 0.52443 (Simulation time: 0 hr 6 min 32 sec) 
Heartbeat CPU  0 instructions:  134000002 cycles:  143933772 heartbeat IPC: 0.52338 cumulative IPC: 0.52440 (Simulation time: 0 hr 6 min 35 sec) 
Heartbeat CPU  0 instructions:  135000003 cycles:  145845572 heartbeat IPC: 0.52307 cumulative IPC: 0.52436 (Simulation time: 0 hr 6 min 39 sec) 
Heartbeat CPU  0 instructions:  136000000 cycles:  147741877 heartbeat IPC: 0.52734 cumulative IPC: 0.52444 (Simulation time: 0 hr 6 min 43 sec) 
Heartbeat CPU  0 instructions:  137000000 cycles:  149656549 heartbeat IPC: 0.52228 cumulative IPC: 0.52438 (Simulation time: 0 hr 6 min 46 sec) 
Heartbeat CPU  0 instructions:  138000000 cycles:  151561395 heartbeat IPC: 0.52498 cumulative IPC: 0.52440 (Simulation time: 0 hr 6 min 50 sec) 
Heartbeat CPU  0 instructions:  139000002 cycles:  153468458 heartbeat IPC: 0.52437 cumulative IPC: 0.52440 (Simulation time: 0 hr 6 min 53 sec) 
Heartbeat CPU  0 instructions:  140000000 cycles:  155375307 heartbeat IPC: 0.52442 cumulative IPC: 0.52440 (Simulation time: 0 hr 6 min 57 sec) 
Heartbeat CPU  0 instructions:  141000002 cycles:  157275635 heartbeat IPC: 0.52623 cumulative IPC: 0.52444 (Simulation time: 0 hr 7 min 0 sec) 
Heartbeat CPU  0 instructions:  142000000 cycles:  159182541 heartbeat IPC: 0.52441 cumulative IPC: 0.52444 (Simulation time: 0 hr 7 min 4 sec) 
Heartbeat CPU  0 instructions:  143000003 cycles:  161089472 heartbeat IPC: 0.52440 cumulative IPC: 0.52444 (Simulation time: 0 hr 7 min 7 sec) 
Heartbeat CPU  0 instructions:  144000000 cycles:  162990297 heartbeat IPC: 0.52609 cumulative IPC: 0.52448 (Simulation time: 0 hr 7 min 11 sec) 
Heartbeat CPU  0 instructions:  145000003 cycles:  164902294 heartbeat IPC: 0.52301 cumulative IPC: 0.52445 (Simulation time: 0 hr 7 min 15 sec) 
Heartbeat CPU  0 instructions:  146000001 cycles:  166802493 heartbeat IPC: 0.52626 cumulative IPC: 0.52448 (Simulation time: 0 hr 7 min 18 sec) 
Heartbeat CPU  0 instructions:  147000003 cycles:  168703491 heartbeat IPC: 0.52604 cumulative IPC: 0.52452 (Simulation time: 0 hr 7 min 22 sec) 
Heartbeat CPU  0 instructions:  148000000 cycles:  170603757 heartbeat IPC: 0.52624 cumulative IPC: 0.52455 (Simulation time: 0 hr 7 min 25 sec) 
Heartbeat CPU  0 instructions:  149000003 cycles:  172509463 heartbeat IPC: 0.52474 cumulative IPC: 0.52456 (Simulation time: 0 hr 7 min 29 sec) 
Heartbeat CPU  0 instructions:  150000001 cycles:  174410079 heartbeat IPC: 0.52614 cumulative IPC: 0.52459 (Simulation time: 0 hr 7 min 32 sec) 
Heartbeat CPU  0 instructions:  151000003 cycles:  176314199 heartbeat IPC: 0.52518 cumulative IPC: 0.52460 (Simulation time: 0 hr 7 min 36 sec) 
Heartbeat CPU  0 instructions:  152000000 cycles:  178210894 heartbeat IPC: 0.52723 cumulative IPC: 0.52465 (Simulation time: 0 hr 7 min 39 sec) 
Heartbeat CPU  0 instructions:  153000003 cycles:  180103657 heartbeat IPC: 0.52833 cumulative IPC: 0.52472 (Simulation time: 0 hr 7 min 43 sec) 
Heartbeat CPU  0 instructions:  154000001 cycles:  181999441 heartbeat IPC: 0.52749 cumulative IPC: 0.52477 (Simulation time: 0 hr 7 min 46 sec) 
Heartbeat CPU  0 instructions:  155000001 cycles:  183899005 heartbeat IPC: 0.52644 cumulative IPC: 0.52480 (Simulation time: 0 hr 7 min 50 sec) 
Heartbeat CPU  0 instructions:  156000000 cycles:  185797236 heartbeat IPC: 0.52681 cumulative IPC: 0.52484 (Simulation time: 0 hr 7 min 53 sec) 
Heartbeat CPU  0 instructions:  157000001 cycles:  187699152 heartbeat IPC: 0.52579 cumulative IPC: 0.52485 (Simulation time: 0 hr 7 min 57 sec) 
Heartbeat CPU  0 instructions:  158000003 cycles:  189589449 heartbeat IPC: 0.52902 cumulative IPC: 0.52492 (Simulation time: 0 hr 8 min 0 sec) 
Heartbeat CPU  0 instructions:  159000003 cycles:  191495428 heartbeat IPC: 0.52466 cumulative IPC: 0.52492 (Simulation time: 0 hr 8 min 4 sec) 
Heartbeat CPU  0 instructions:  160000000 cycles:  193396408 heartbeat IPC: 0.52604 cumulative IPC: 0.52494 (Simulation time: 0 hr 8 min 7 sec) 
Heartbeat CPU  0 instructions:  161000002 cycles:  195293898 heartbeat IPC: 0.52701 cumulative IPC: 0.52497 (Simulation time: 0 hr 8 min 11 sec) 
Heartbeat CPU  0 instructions:  162000000 cycles:  197183737 heartbeat IPC: 0.52914 cumulative IPC: 0.52504 (Simulation time: 0 hr 8 min 14 sec) 
Heartbeat CPU  0 instructions:  163000000 cycles:  199073478 heartbeat IPC: 0.52917 cumulative IPC: 0.52510 (Simulation time: 0 hr 8 min 18 sec) 
Heartbeat CPU  0 instructions:  164000000 cycles:  200957292 heartbeat IPC: 0.53084 cumulative IPC: 0.52519 (Simulation time: 0 hr 8 min 22 sec) 
Heartbeat CPU  0 instructions:  165000002 cycles:  202853276 heartbeat IPC: 0.52743 cumulative IPC: 0.52523 (Simulation time: 0 hr 8 min 25 sec) 
Heartbeat CPU  0 instructions:  166000003 cycles:  204757464 heartbeat IPC: 0.52516 cumulative IPC: 0.52523 (Simulation time: 0 hr 8 min 29 sec) 
Heartbeat CPU  0 instructions:  167000002 cycles:  206658052 heartbeat IPC: 0.52615 cumulative IPC: 0.52524 (Simulation time: 0 hr 8 min 32 sec) 
Heartbeat CPU  0 instructions:  168000000 cycles:  208553453 heartbeat IPC: 0.52759 cumulative IPC: 0.52527 (Simulation time: 0 hr 8 min 36 sec) 
Heartbeat CPU  0 instructions:  169000001 cycles:  210466457 heartbeat IPC: 0.52274 cumulative IPC: 0.52524 (Simulation time: 0 hr 8 min 39 sec) 
Heartbeat CPU  0 instructions:  170000000 cycles:  212373777 heartbeat IPC: 0.52430 cumulative IPC: 0.52522 (Simulation time: 0 hr 8 min 43 sec) 
Heartbeat CPU  0 instructions:  171000003 cycles:  214271932 heartbeat IPC: 0.52683 cumulative IPC: 0.52525 (Simulation time: 0 hr 8 min 46 sec) 
Heartbeat CPU  0 instructions:  172000000 cycles:  216164220 heartbeat IPC: 0.52846 cumulative IPC: 0.52529 (Simulation time: 0 hr 8 min 50 sec) 
Heartbeat CPU  0 instructions:  173000000 cycles:  218063123 heartbeat IPC: 0.52662 cumulative IPC: 0.52531 (Simulation time: 0 hr 8 min 53 sec) 
Heartbeat CPU  0 instructions:  174000001 cycles:  219952990 heartbeat IPC: 0.52914 cumulative IPC: 0.52536 (Simulation time: 0 hr 8 min 57 sec) 
Heartbeat CPU  0 instructions:  175000003 cycles:  221848599 heartbeat IPC: 0.52754 cumulative IPC: 0.52539 (Simulation time: 0 hr 9 min 0 sec) 
Heartbeat CPU  0 instructions:  176000000 cycles:  223748625 heartbeat IPC: 0.52631 cumulative IPC: 0.52540 (Simulation time: 0 hr 9 min 4 sec) 
Heartbeat CPU  0 instructions:  177000003 cycles:  225637819 heartbeat IPC: 0.52933 cumulative IPC: 0.52545 (Simulation time: 0 hr 9 min 7 sec) 
Heartbeat CPU  0 instructions:  178000001 cycles:  227536773 heartbeat IPC: 0.52660 cumulative IPC: 0.52547 (Simulation time: 0 hr 9 min 11 sec) 
Heartbeat CPU  0 instructions:  179000000 cycles:  229433694 heartbeat IPC: 0.52717 cumulative IPC: 0.52549 (Simulation time: 0 hr 9 min 14 sec) 
Heartbeat CPU  0 instructions:  180000000 cycles:  231334357 heartbeat IPC: 0.52613 cumulative IPC: 0.52550 (Simulation time: 0 hr 9 min 18 sec) 
Heartbeat CPU  0 instructions:  181000000 cycles:  233229613 heartbeat IPC: 0.52763 cumulative IPC: 0.52552 (Simulation time: 0 hr 9 min 22 sec) 
Heartbeat CPU  0 instructions:  182000001 cycles:  235129580 heartbeat IPC: 0.52633 cumulative IPC: 0.52553 (Simulation time: 0 hr 9 min 25 sec) 
Heartbeat CPU  0 instructions:  183000002 cycles:  237028792 heartbeat IPC: 0.52653 cumulative IPC: 0.52554 (Simulation time: 0 hr 9 min 29 sec) 
Heartbeat CPU  0 instructions:  184000000 cycles:  238920037 heartbeat IPC: 0.52875 cumulative IPC: 0.52558 (Simulation time: 0 hr 9 min 32 sec) 
Heartbeat CPU  0 instructions:  185000001 cycles:  240809594 heartbeat IPC: 0.52923 cumulative IPC: 0.52562 (Simulation time: 0 hr 9 min 36 sec) 
Heartbeat CPU  0 instructions:  186000000 cycles:  242700509 heartbeat IPC: 0.52884 cumulative IPC: 0.52566 (Simulation time: 0 hr 9 min 39 sec) 
Heartbeat CPU  0 instructions:  187000000 cycles:  244435716 heartbeat IPC: 0.57630 cumulative IPC: 0.52619 (Simulation time: 0 hr 9 min 43 sec) 
Heartbeat CPU  0 instructions:  188000000 cycles:  245887893 heartbeat IPC: 0.68862 cumulative IPC: 0.52761 (Simulation time: 0 hr 9 min 46 sec) 
Heartbeat CPU  0 instructions:  189000002 cycles:  247329961 heartbeat IPC: 0.69345 cumulative IPC: 0.52903 (Simulation time: 0 hr 9 min 49 sec) 
Heartbeat CPU  0 instructions:  190000003 cycles:  248789307 heartbeat IPC: 0.68524 cumulative IPC: 0.53037 (Simulation time: 0 hr 9 min 53 sec) 
Heartbeat CPU  0 instructions:  191000000 cycles:  250243507 heartbeat IPC: 0.68766 cumulative IPC: 0.53171 (Simulation time: 0 hr 9 min 56 sec) 
Heartbeat CPU  0 instructions:  192000000 cycles:  251684970 heartbeat IPC: 0.69374 cumulative IPC: 0.53306 (Simulation time: 0 hr 9 min 59 sec) 
Heartbeat CPU  0 instructions:  193000001 cycles:  253141909 heartbeat IPC: 0.68637 cumulative IPC: 0.53435 (Simulation time: 0 hr 10 min 3 sec) 
Heartbeat CPU  0 instructions:  194000000 cycles:  254594550 heartbeat IPC: 0.68840 cumulative IPC: 0.53562 (Simulation time: 0 hr 10 min 6 sec) 
Heartbeat CPU  0 instructions:  195000000 cycles:  256048679 heartbeat IPC: 0.68770 cumulative IPC: 0.53687 (Simulation time: 0 hr 10 min 9 sec) 
Heartbeat CPU  0 instructions:  196000000 cycles:  257510660 heartbeat IPC: 0.68400 cumulative IPC: 0.53808 (Simulation time: 0 hr 10 min 13 sec) 
Heartbeat CPU  0 instructions:  197000000 cycles:  258939198 heartbeat IPC: 0.70002 cumulative IPC: 0.53936 (Simulation time: 0 hr 10 min 16 sec) 
Heartbeat CPU  0 instructions:  198000003 cycles:  260392968 heartbeat IPC: 0.68787 cumulative IPC: 0.54055 (Simulation time: 0 hr 10 min 19 sec) 
Heartbeat CPU  0 instructions:  199000001 cycles:  261863148 heartbeat IPC: 0.68019 cumulative IPC: 0.54168 (Simulation time: 0 hr 10 min 23 sec) 
Heartbeat CPU  0 instructions:  200000000 cycles:  263309060 heartbeat IPC: 0.69160 cumulative IPC: 0.54285 (Simulation time: 0 hr 10 min 26 sec) 
Heartbeat CPU  0 instructions:  201000003 cycles:  264767755 heartbeat IPC: 0.68555 cumulative IPC: 0.54397 (Simulation time: 0 hr 10 min 29 sec) 
Heartbeat CPU  0 instructions:  202000000 cycles:  266242536 heartbeat IPC: 0.67806 cumulative IPC: 0.54503 (Simulation time: 0 hr 10 min 33 sec) 
Heartbeat CPU  0 instructions:  203000001 cycles:  267709146 heartbeat IPC: 0.68185 cumulative IPC: 0.54610 (Simulation time: 0 hr 10 min 36 sec) 
Heartbeat CPU  0 instructions:  204000000 cycles:  269171758 heartbeat IPC: 0.68371 cumulative IPC: 0.54715 (Simulation time: 0 hr 10 min 40 sec) 
Heartbeat CPU  0 instructions:  205000000 cycles:  270648957 heartbeat IPC: 0.67696 cumulative IPC: 0.54816 (Simulation time: 0 hr 10 min 43 sec) 
Heartbeat CPU  0 instructions:  206000002 cycles:  272085686 heartbeat IPC: 0.69603 cumulative IPC: 0.54926 (Simulation time: 0 hr 10 min 46 sec) 
Heartbeat CPU  0 instructions:  207000000 cycles:  273553492 heartbeat IPC: 0.68129 cumulative IPC: 0.55025 (Simulation time: 0 hr 10 min 50 sec) 
Heartbeat CPU  0 instructions:  208000000 cycles:  275021373 heartbeat IPC: 0.68125 cumulative IPC: 0.55123 (Simulation time: 0 hr 10 min 53 sec) 
Heartbeat CPU  0 instructions:  209000003 cycles:  276464273 heartbeat IPC: 0.69305 cumulative IPC: 0.55227 (Simulation time: 0 hr 10 min 56 sec) 
Heartbeat CPU  0 instructions:  210000000 cycles:  277951693 heartbeat IPC: 0.67230 cumulative IPC: 0.55317 (Simulation time: 0 hr 11 min 0 sec) 
Heartbeat CPU  0 instructions:  211000003 cycles:  279401053 heartbeat IPC: 0.68996 cumulative IPC: 0.55416 (Simulation time: 0 hr 11 min 3 sec) 
Heartbeat CPU  0 instructions:  212000000 cycles:  280877281 heartbeat IPC: 0.67740 cumulative IPC: 0.55506 (Simulation time: 0 hr 11 min 7 sec) 
Heartbeat CPU  0 instructions:  213000003 cycles:  282354698 heartbeat IPC: 0.67686 cumulative IPC: 0.55595 (Simulation time: 0 hr 11 min 10 sec) 
Heartbeat CPU  0 instructions:  214000000 cycles:  283827328 heartbeat IPC: 0.67906 cumulative IPC: 0.55683 (Simulation time: 0 hr 11 min 13 sec) 
Heartbeat CPU  0 instructions:  215000002 cycles:  285263496 heartbeat IPC: 0.69630 cumulative IPC: 0.55780 (Simulation time: 0 hr 11 min 17 sec) 
Heartbeat CPU  0 instructions:  216000000 cycles:  286742253 heartbeat IPC: 0.67624 cumulative IPC: 0.55865 (Simulation time: 0 hr 11 min 20 sec) 
Heartbeat CPU  0 instructions:  217000001 cycles:  288190259 heartbeat IPC: 0.69061 cumulative IPC: 0.55956 (Simulation time: 0 hr 11 min 24 sec) 
Heartbeat CPU  0 instructions:  218000000 cycles:  289638409 heartbeat IPC: 0.69054 cumulative IPC: 0.56046 (Simulation time: 0 hr 11 min 27 sec) 
Heartbeat CPU  0 instructions:  219000000 cycles:  291114420 heartbeat IPC: 0.67750 cumulative IPC: 0.56128 (Simulation time: 0 hr 11 min 31 sec) 
Heartbeat CPU  0 instructions:  220000000 cycles:  292555344 heartbeat IPC: 0.69400 cumulative IPC: 0.56217 (Simulation time: 0 hr 11 min 34 sec) 
Heartbeat CPU  0 instructions:  221000000 cycles:  294026010 heartbeat IPC: 0.67996 cumulative IPC: 0.56298 (Simulation time: 0 hr 11 min 37 sec) 
Heartbeat CPU  0 instructions:  222000000 cycles:  295501772 heartbeat IPC: 0.67762 cumulative IPC: 0.56376 (Simulation time: 0 hr 11 min 41 sec) 
Heartbeat CPU  0 instructions:  223000003 cycles:  296946355 heartbeat IPC: 0.69224 cumulative IPC: 0.56461 (Simulation time: 0 hr 11 min 44 sec) 
Heartbeat CPU  0 instructions:  224000000 cycles:  298441514 heartbeat IPC: 0.66882 cumulative IPC: 0.56532 (Simulation time: 0 hr 11 min 48 sec) 
Heartbeat CPU  0 instructions:  225000001 cycles:  299899179 heartbeat IPC: 0.68603 cumulative IPC: 0.56612 (Simulation time: 0 hr 11 min 51 sec) 
Heartbeat CPU  0 instructions:  226000002 cycles:  301352724 heartbeat IPC: 0.68797 cumulative IPC: 0.56692 (Simulation time: 0 hr 11 min 54 sec) 
Heartbeat CPU  0 instructions:  227000003 cycles:  302814916 heartbeat IPC: 0.68391 cumulative IPC: 0.56768 (Simulation time: 0 hr 11 min 58 sec) 
Heartbeat CPU  0 instructions:  228000000 cycles:  304277206 heartbeat IPC: 0.68386 cumulative IPC: 0.56843 (Simulation time: 0 hr 12 min 1 sec) 
Heartbeat CPU  0 instructions:  229000000 cycles:  305721776 heartbeat IPC: 0.69225 cumulative IPC: 0.56922 (Simulation time: 0 hr 12 min 4 sec) 
Heartbeat CPU  0 instructions:  230000003 cycles:  307193823 heartbeat IPC: 0.67933 cumulative IPC: 0.56993 (Simulation time: 0 hr 12 min 8 sec) 
Heartbeat CPU  0 instructions:  231000000 cycles:  308641305 heartbeat IPC: 0.69085 cumulative IPC: 0.57070 (Simulation time: 0 hr 12 min 11 sec) 
Heartbeat CPU  0 instructions:  232000000 cycles:  310092290 heartbeat IPC: 0.68919 cumulative IPC: 0.57144 (Simulation time: 0 hr 12 min 15 sec) 
Heartbeat CPU  0 instructions:  233000003 cycles:  311565438 heartbeat IPC: 0.67882 cumulative IPC: 0.57212 (Simulation time: 0 hr 12 min 18 sec) 
Heartbeat CPU  0 instructions:  234000002 cycles:  312999319 heartbeat IPC: 0.69741 cumulative IPC: 0.57289 (Simulation time: 0 hr 12 min 21 sec) 
Heartbeat CPU  0 instructions:  235000001 cycles:  314461937 heartbeat IPC: 0.68370 cumulative IPC: 0.57358 (Simulation time: 0 hr 12 min 25 sec) 
Heartbeat CPU  0 instructions:  236000000 cycles:  315945501 heartbeat IPC: 0.67405 cumulative IPC: 0.57421 (Simulation time: 0 hr 12 min 28 sec) 
Heartbeat CPU  0 instructions:  237000002 cycles:  317399151 heartbeat IPC: 0.68792 cumulative IPC: 0.57490 (Simulation time: 0 hr 12 min 31 sec) 
Heartbeat CPU  0 instructions:  238000000 cycles:  318891462 heartbeat IPC: 0.67010 cumulative IPC: 0.57549 (Simulation time: 0 hr 12 min 35 sec) 
Heartbeat CPU  0 instructions:  239000000 cycles:  320383236 heartbeat IPC: 0.67034 cumulative IPC: 0.57608 (Simulation time: 0 hr 12 min 38 sec) 
Heartbeat CPU  0 instructions:  240000000 cycles:  321830742 heartbeat IPC: 0.69084 cumulative IPC: 0.57676 (Simulation time: 0 hr 12 min 41 sec) 
Heartbeat CPU  0 instructions:  241000002 cycles:  323300884 heartbeat IPC: 0.68021 cumulative IPC: 0.57739 (Simulation time: 0 hr 12 min 45 sec) 
Heartbeat CPU  0 instructions:  242000000 cycles:  324762897 heartbeat IPC: 0.68399 cumulative IPC: 0.57802 (Simulation time: 0 hr 12 min 48 sec) 
Heartbeat CPU  0 instructions:  243000003 cycles:  326195930 heartbeat IPC: 0.69782 cumulative IPC: 0.57872 (Simulation time: 0 hr 12 min 51 sec) 
Heartbeat CPU  0 instructions:  244000000 cycles:  327652053 heartbeat IPC: 0.68675 cumulative IPC: 0.57935 (Simulation time: 0 hr 12 min 55 sec) 
Heartbeat CPU  0 instructions:  245000002 cycles:  329091435 heartbeat IPC: 0.69474 cumulative IPC: 0.58001 (Simulation time: 0 hr 12 min 58 sec) 
Heartbeat CPU  0 instructions:  246000003 cycles:  330536533 heartbeat IPC: 0.69200 cumulative IPC: 0.58066 (Simulation time: 0 hr 13 min 1 sec) 
Heartbeat CPU  0 instructions:  247000002 cycles:  332005070 heartbeat IPC: 0.68095 cumulative IPC: 0.58124 (Simulation time: 0 hr 13 min 5 sec) 
Heartbeat CPU  0 instructions:  248000000 cycles:  333440855 heartbeat IPC: 0.69648 cumulative IPC: 0.58189 (Simulation time: 0 hr 13 min 8 sec) 
Heartbeat CPU  0 instructions:  249000002 cycles:  334924802 heartbeat IPC: 0.67388 cumulative IPC: 0.58242 (Simulation time: 0 hr 13 min 12 sec) 
Heartbeat CPU  0 instructions:  250000003 cycles:  336393180 heartbeat IPC: 0.68102 cumulative IPC: 0.58299 (Simulation time: 0 hr 13 min 15 sec) 
Heartbeat CPU  0 instructions:  251000001 cycles:  337851811 heartbeat IPC: 0.68557 cumulative IPC: 0.58356 (Simulation time: 0 hr 13 min 20 sec) 
Heartbeat CPU  0 instructions:  252000000 cycles:  339310237 heartbeat IPC: 0.68567 cumulative IPC: 0.58414 (Simulation time: 0 hr 13 min 24 sec) 
Heartbeat CPU  0 instructions:  253000000 cycles:  340805818 heartbeat IPC: 0.66864 cumulative IPC: 0.58462 (Simulation time: 0 hr 13 min 28 sec) 
Heartbeat CPU  0 instructions:  254000003 cycles:  342236944 heartbeat IPC: 0.69875 cumulative IPC: 0.58524 (Simulation time: 0 hr 13 min 33 sec) 
Heartbeat CPU  0 instructions:  255000000 cycles:  343692839 heartbeat IPC: 0.68686 cumulative IPC: 0.58580 (Simulation time: 0 hr 13 min 41 sec) 
Heartbeat CPU  0 instructions:  256000000 cycles:  345167691 heartbeat IPC: 0.67803 cumulative IPC: 0.58631 (Simulation time: 0 hr 13 min 45 sec) 
Heartbeat CPU  0 instructions:  257000003 cycles:  346609136 heartbeat IPC: 0.69375 cumulative IPC: 0.58689 (Simulation time: 0 hr 13 min 49 sec) 
Heartbeat CPU  0 instructions:  258000000 cycles:  348059243 heartbeat IPC: 0.68960 cumulative IPC: 0.58744 (Simulation time: 0 hr 13 min 52 sec) 
Heartbeat CPU  0 instructions:  259000002 cycles:  349501781 heartbeat IPC: 0.69322 cumulative IPC: 0.58801 (Simulation time: 0 hr 13 min 56 sec) 
Heartbeat CPU  0 instructions:  260000000 cycles:  350944824 heartbeat IPC: 0.69298 cumulative IPC: 0.58857 (Simulation time: 0 hr 13 min 59 sec) 
Heartbeat CPU  0 instructions:  261000000 cycles:  352410236 heartbeat IPC: 0.68240 cumulative IPC: 0.58907 (Simulation time: 0 hr 14 min 3 sec) 
Heartbeat CPU  0 instructions:  262000001 cycles:  353859787 heartbeat IPC: 0.68987 cumulative IPC: 0.58960 (Simulation time: 0 hr 14 min 6 sec) 
Heartbeat CPU  0 instructions:  263000002 cycles:  355335465 heartbeat IPC: 0.67766 cumulative IPC: 0.59007 (Simulation time: 0 hr 14 min 9 sec) 
Heartbeat CPU  0 instructions:  264000000 cycles:  356819438 heartbeat IPC: 0.67387 cumulative IPC: 0.59052 (Simulation time: 0 hr 14 min 13 sec) 
Heartbeat CPU  0 instructions:  265000003 cycles:  358293153 heartbeat IPC: 0.67856 cumulative IPC: 0.59098 (Simulation time: 0 hr 14 min 16 sec) 
Heartbeat CPU  0 instructions:  266000002 cycles:  359747899 heartbeat IPC: 0.68740 cumulative IPC: 0.59148 (Simulation time: 0 hr 14 min 19 sec) 
Heartbeat CPU  0 instructions:  267000003 cycles:  361248129 heartbeat IPC: 0.66657 cumulative IPC: 0.59188 (Simulation time: 0 hr 14 min 23 sec) 
Heartbeat CPU  0 instructions:  268000000 cycles:  362679811 heartbeat IPC: 0.69848 cumulative IPC: 0.59242 (Simulation time: 0 hr 14 min 26 sec) 
Heartbeat CPU  0 instructions:  269000002 cycles:  364134261 heartbeat IPC: 0.68755 cumulative IPC: 0.59291 (Simulation time: 0 hr 14 min 30 sec) 
Heartbeat CPU  0 instructions:  270000001 cycles:  365610982 heartbeat IPC: 0.67718 cumulative IPC: 0.59334 (Simulation time: 0 hr 14 min 34 sec) 
Heartbeat CPU  0 instructions:  271000000 cycles:  367037122 heartbeat IPC: 0.70119 cumulative IPC: 0.59387 (Simulation time: 0 hr 14 min 37 sec) 
Heartbeat CPU  0 instructions:  272000000 cycles:  368492388 heartbeat IPC: 0.68716 cumulative IPC: 0.59434 (Simulation time: 0 hr 14 min 41 sec) 
Heartbeat CPU  0 instructions:  273000001 cycles:  369960266 heartbeat IPC: 0.68126 cumulative IPC: 0.59478 (Simulation time: 0 hr 14 min 44 sec) 
Heartbeat CPU  0 instructions:  274000000 cycles:  371414277 heartbeat IPC: 0.68775 cumulative IPC: 0.59524 (Simulation time: 0 hr 14 min 48 sec) 
Heartbeat CPU  0 instructions:  275000002 cycles:  372889144 heartbeat IPC: 0.67803 cumulative IPC: 0.59566 (Simulation time: 0 hr 14 min 51 sec) 
Heartbeat CPU  0 instructions:  276000000 cycles:  374340552 heartbeat IPC: 0.68898 cumulative IPC: 0.59612 (Simulation time: 0 hr 14 min 55 sec) 
Heartbeat CPU  0 instructions:  277000001 cycles:  375809505 heartbeat IPC: 0.68076 cumulative IPC: 0.59654 (Simulation time: 0 hr 14 min 58 sec) 
Heartbeat CPU  0 instructions:  278000003 cycles:  377292083 heartbeat IPC: 0.67450 cumulative IPC: 0.59693 (Simulation time: 0 hr 15 min 1 sec) 
Heartbeat CPU  0 instructions:  279000002 cycles:  378733843 heartbeat IPC: 0.69360 cumulative IPC: 0.59739 (Simulation time: 0 hr 15 min 5 sec) 
Heartbeat CPU  0 instructions:  280000000 cycles:  380184384 heartbeat IPC: 0.68940 cumulative IPC: 0.59783 (Simulation time: 0 hr 15 min 8 sec) 
Heartbeat CPU  0 instructions:  281000001 cycles:  381672059 heartbeat IPC: 0.67219 cumulative IPC: 0.59820 (Simulation time: 0 hr 15 min 12 sec) 
Heartbeat CPU  0 instructions:  282000002 cycles:  383116869 heartbeat IPC: 0.69213 cumulative IPC: 0.59865 (Simulation time: 0 hr 15 min 15 sec) 
Heartbeat CPU  0 instructions:  283000001 cycles:  384573522 heartbeat IPC: 0.68650 cumulative IPC: 0.59906 (Simulation time: 0 hr 15 min 19 sec) 
Heartbeat CPU  0 instructions:  284000000 cycles:  386053502 heartbeat IPC: 0.67568 cumulative IPC: 0.59943 (Simulation time: 0 hr 15 min 22 sec) 
Heartbeat CPU  0 instructions:  285000001 cycles:  387493059 heartbeat IPC: 0.69466 cumulative IPC: 0.59988 (Simulation time: 0 hr 15 min 26 sec) 
Heartbeat CPU  0 instructions:  286000002 cycles:  388950422 heartbeat IPC: 0.68617 cumulative IPC: 0.60028 (Simulation time: 0 hr 15 min 30 sec) 
Heartbeat CPU  0 instructions:  287000000 cycles:  390409785 heartbeat IPC: 0.68523 cumulative IPC: 0.60068 (Simulation time: 0 hr 15 min 34 sec) 
Heartbeat CPU  0 instructions:  288000000 cycles:  391860244 heartbeat IPC: 0.68944 cumulative IPC: 0.60109 (Simulation time: 0 hr 15 min 37 sec) 
Heartbeat CPU  0 instructions:  289000003 cycles:  393308608 heartbeat IPC: 0.69044 cumulative IPC: 0.60151 (Simulation time: 0 hr 15 min 41 sec) 
Heartbeat CPU  0 instructions:  290000000 cycles:  394775504 heartbeat IPC: 0.68171 cumulative IPC: 0.60188 (Simulation time: 0 hr 15 min 44 sec) 
Heartbeat CPU  0 instructions:  291000000 cycles:  396216727 heartbeat IPC: 0.69386 cumulative IPC: 0.60230 (Simulation time: 0 hr 15 min 47 sec) 
Heartbeat CPU  0 instructions:  292000000 cycles:  397711452 heartbeat IPC: 0.66902 cumulative IPC: 0.60261 (Simulation time: 0 hr 15 min 51 sec) 
Heartbeat CPU  0 instructions:  293000003 cycles:  399184829 heartbeat IPC: 0.67871 cumulative IPC: 0.60296 (Simulation time: 0 hr 15 min 54 sec) 
Heartbeat CPU  0 instructions:  294000000 cycles:  400619576 heartbeat IPC: 0.69698 cumulative IPC: 0.60338 (Simulation time: 0 hr 15 min 57 sec) 
Heartbeat CPU  0 instructions:  295000001 cycles:  402106955 heartbeat IPC: 0.67232 cumulative IPC: 0.60370 (Simulation time: 0 hr 16 min 0 sec) 
Heartbeat CPU  0 instructions:  296000000 cycles:  403548414 heartbeat IPC: 0.69374 cumulative IPC: 0.60410 (Simulation time: 0 hr 16 min 4 sec) 
Heartbeat CPU  0 instructions:  297000003 cycles:  404991275 heartbeat IPC: 0.69307 cumulative IPC: 0.60449 (Simulation time: 0 hr 16 min 7 sec) 
Heartbeat CPU  0 instructions:  298000000 cycles:  406458885 heartbeat IPC: 0.68138 cumulative IPC: 0.60484 (Simulation time: 0 hr 16 min 10 sec) 
Heartbeat CPU  0 instructions:  299000001 cycles:  407917274 heartbeat IPC: 0.68569 cumulative IPC: 0.60519 (Simulation time: 0 hr 16 min 14 sec) 
Heartbeat CPU  0 instructions:  300000000 cycles:  409370497 heartbeat IPC: 0.68812 cumulative IPC: 0.60556 (Simulation time: 0 hr 16 min 17 sec) 
Heartbeat CPU  0 instructions:  301000002 cycles:  410862132 heartbeat IPC: 0.67041 cumulative IPC: 0.60585 (Simulation time: 0 hr 16 min 21 sec) 
Heartbeat CPU  0 instructions:  302000001 cycles:  412334039 heartbeat IPC: 0.67939 cumulative IPC: 0.60618 (Simulation time: 0 hr 16 min 24 sec) 
Heartbeat CPU  0 instructions:  303000002 cycles:  413796982 heartbeat IPC: 0.68355 cumulative IPC: 0.60651 (Simulation time: 0 hr 16 min 28 sec) 
Heartbeat CPU  0 instructions:  304000000 cycles:  415271647 heartbeat IPC: 0.67812 cumulative IPC: 0.60683 (Simulation time: 0 hr 16 min 31 sec) 
Heartbeat CPU  0 instructions:  305000001 cycles:  416707360 heartbeat IPC: 0.69652 cumulative IPC: 0.60721 (Simulation time: 0 hr 16 min 34 sec) 
Heartbeat CPU  0 instructions:  306000000 cycles:  418172416 heartbeat IPC: 0.68257 cumulative IPC: 0.60754 (Simulation time: 0 hr 16 min 38 sec) 
Heartbeat CPU  0 instructions:  307000000 cycles:  419635786 heartbeat IPC: 0.68335 cumulative IPC: 0.60786 (Simulation time: 0 hr 16 min 41 sec) 
Heartbeat CPU  0 instructions:  308000000 cycles:  421486566 heartbeat IPC: 0.54031 cumulative IPC: 0.60750 (Simulation time: 0 hr 16 min 44 sec) 
Heartbeat CPU  0 instructions:  309000002 cycles:  423184218 heartbeat IPC: 0.58905 cumulative IPC: 0.60740 (Simulation time: 0 hr 16 min 47 sec) 
Heartbeat CPU  0 instructions:  310000000 cycles:  424464022 heartbeat IPC: 0.78137 cumulative IPC: 0.60805 (Simulation time: 0 hr 16 min 50 sec) 
Heartbeat CPU  0 instructions:  311000002 cycles:  425977927 heartbeat IPC: 0.66054 cumulative IPC: 0.60828 (Simulation time: 0 hr 16 min 54 sec) 
Heartbeat CPU  0 instructions:  312000000 cycles:  427476386 heartbeat IPC: 0.66735 cumulative IPC: 0.60853 (Simulation time: 0 hr 16 min 57 sec) 
Heartbeat CPU  0 instructions:  313000003 cycles:  428893773 heartbeat IPC: 0.70553 cumulative IPC: 0.60893 (Simulation time: 0 hr 17 min 0 sec) 
Heartbeat CPU  0 instructions:  314000000 cycles:  430395795 heartbeat IPC: 0.66577 cumulative IPC: 0.60917 (Simulation time: 0 hr 17 min 4 sec) 
Heartbeat CPU  0 instructions:  315000003 cycles:  431841276 heartbeat IPC: 0.69181 cumulative IPC: 0.60951 (Simulation time: 0 hr 17 min 7 sec) 
Heartbeat CPU  0 instructions:  316000000 cycles:  433298874 heartbeat IPC: 0.68606 cumulative IPC: 0.60982 (Simulation time: 0 hr 17 min 10 sec) 
Heartbeat CPU  0 instructions:  317000001 cycles:  434766321 heartbeat IPC: 0.68146 cumulative IPC: 0.61012 (Simulation time: 0 hr 17 min 14 sec) 
Heartbeat CPU  0 instructions:  318000000 cycles:  436225975 heartbeat IPC: 0.68509 cumulative IPC: 0.61042 (Simulation time: 0 hr 17 min 17 sec) 
Heartbeat CPU  0 instructions:  319000000 cycles:  437698171 heartbeat IPC: 0.67926 cumulative IPC: 0.61071 (Simulation time: 0 hr 17 min 21 sec) 
Heartbeat CPU  0 instructions:  320000000 cycles:  439149741 heartbeat IPC: 0.68891 cumulative IPC: 0.61102 (Simulation time: 0 hr 17 min 24 sec) 
Heartbeat CPU  0 instructions:  321000000 cycles:  440603065 heartbeat IPC: 0.68808 cumulative IPC: 0.61133 (Simulation time: 0 hr 17 min 27 sec) 
Heartbeat CPU  0 instructions:  322000003 cycles:  442065884 heartbeat IPC: 0.68361 cumulative IPC: 0.61162 (Simulation time: 0 hr 17 min 30 sec) 
Heartbeat CPU  0 instructions:  323000003 cycles:  443494307 heartbeat IPC: 0.70007 cumulative IPC: 0.61197 (Simulation time: 0 hr 17 min 34 sec) 
Heartbeat CPU  0 instructions:  324000000 cycles:  444984220 heartbeat IPC: 0.67118 cumulative IPC: 0.61221 (Simulation time: 0 hr 17 min 37 sec) 
Heartbeat CPU  0 instructions:  325000003 cycles:  446425055 heartbeat IPC: 0.69404 cumulative IPC: 0.61253 (Simulation time: 0 hr 17 min 40 sec) 
Heartbeat CPU  0 instructions:  326000000 cycles:  447905011 heartbeat IPC: 0.67569 cumulative IPC: 0.61279 (Simulation time: 0 hr 17 min 44 sec) 
Heartbeat CPU  0 instructions:  327000001 cycles:  449392505 heartbeat IPC: 0.67227 cumulative IPC: 0.61302 (Simulation time: 0 hr 17 min 47 sec) 
Heartbeat CPU  0 instructions:  328000000 cycles:  450829060 heartbeat IPC: 0.69611 cumulative IPC: 0.61335 (Simulation time: 0 hr 17 min 50 sec) 
Heartbeat CPU  0 instructions:  329000002 cycles:  452297817 heartbeat IPC: 0.68085 cumulative IPC: 0.61361 (Simulation time: 0 hr 17 min 54 sec) 
Heartbeat CPU  0 instructions:  330000003 cycles:  453742053 heartbeat IPC: 0.69241 cumulative IPC: 0.61391 (Simulation time: 0 hr 17 min 57 sec) 
Heartbeat CPU  0 instructions:  331000003 cycles:  455194333 heartbeat IPC: 0.68857 cumulative IPC: 0.61420 (Simulation time: 0 hr 18 min 0 sec) 
Heartbeat CPU  0 instructions:  332000000 cycles:  456654045 heartbeat IPC: 0.68506 cumulative IPC: 0.61448 (Simulation time: 0 hr 18 min 4 sec) 
Heartbeat CPU  0 instructions:  333000003 cycles:  458098073 heartbeat IPC: 0.69251 cumulative IPC: 0.61477 (Simulation time: 0 hr 18 min 7 sec) 
Heartbeat CPU  0 instructions:  334000000 cycles:  459565640 heartbeat IPC: 0.68140 cumulative IPC: 0.61503 (Simulation time: 0 hr 18 min 10 sec) 
Heartbeat CPU  0 instructions:  335000002 cycles:  461016224 heartbeat IPC: 0.68938 cumulative IPC: 0.61531 (Simulation time: 0 hr 18 min 14 sec) 
Heartbeat CPU  0 instructions:  336000000 cycles:  462492265 heartbeat IPC: 0.67749 cumulative IPC: 0.61555 (Simulation time: 0 hr 18 min 17 sec) 
Heartbeat CPU  0 instructions:  337000000 cycles:  463950801 heartbeat IPC: 0.68562 cumulative IPC: 0.61582 (Simulation time: 0 hr 18 min 21 sec) 
Heartbeat CPU  0 instructions:  338000002 cycles:  465397961 heartbeat IPC: 0.69101 cumulative IPC: 0.61610 (Simulation time: 0 hr 18 min 24 sec) 
Heartbeat CPU  0 instructions:  339000001 cycles:  466894706 heartbeat IPC: 0.66812 cumulative IPC: 0.61630 (Simulation time: 0 hr 18 min 28 sec) 
Heartbeat CPU  0 instructions:  340000000 cycles:  468331427 heartbeat IPC: 0.69603 cumulative IPC: 0.61660 (Simulation time: 0 hr 18 min 32 sec) 
Heartbeat CPU  0 instructions:  341000002 cycles:  469788600 heartbeat IPC: 0.68626 cumulative IPC: 0.61686 (Simulation time: 0 hr 18 min 35 sec) 
Heartbeat CPU  0 instructions:  342000003 cycles:  471256153 heartbeat IPC: 0.68141 cumulative IPC: 0.61710 (Simulation time: 0 hr 18 min 39 sec) 
Heartbeat CPU  0 instructions:  343000000 cycles:  472702288 heartbeat IPC: 0.69150 cumulative IPC: 0.61737 (Simulation time: 0 hr 18 min 42 sec) 
Heartbeat CPU  0 instructions:  344000000 cycles:  474169456 heartbeat IPC: 0.68159 cumulative IPC: 0.61761 (Simulation time: 0 hr 18 min 46 sec) 
Heartbeat CPU  0 instructions:  345000003 cycles:  475637308 heartbeat IPC: 0.68127 cumulative IPC: 0.61784 (Simulation time: 0 hr 18 min 49 sec) 
Heartbeat CPU  0 instructions:  346000000 cycles:  477090754 heartbeat IPC: 0.68802 cumulative IPC: 0.61810 (Simulation time: 0 hr 18 min 52 sec) 
Heartbeat CPU  0 instructions:  347000003 cycles:  478549948 heartbeat IPC: 0.68531 cumulative IPC: 0.61835 (Simulation time: 0 hr 18 min 56 sec) 
Heartbeat CPU  0 instructions:  348000000 cycles:  479988618 heartbeat IPC: 0.69508 cumulative IPC: 0.61862 (Simulation time: 0 hr 19 min 0 sec) 
Heartbeat CPU  0 instructions:  349000000 cycles:  481459431 heartbeat IPC: 0.67990 cumulative IPC: 0.61885 (Simulation time: 0 hr 19 min 4 sec) 
Heartbeat CPU  0 instructions:  350000003 cycles:  482896022 heartbeat IPC: 0.69609 cumulative IPC: 0.61912 (Simulation time: 0 hr 19 min 8 sec) 
Heartbeat CPU  0 instructions:  351000001 cycles:  484381654 heartbeat IPC: 0.67311 cumulative IPC: 0.61932 (Simulation time: 0 hr 19 min 11 sec) 
Heartbeat CPU  0 instructions:  352000000 cycles:  485846190 heartbeat IPC: 0.68281 cumulative IPC: 0.61955 (Simulation time: 0 hr 19 min 15 sec) 
Heartbeat CPU  0 instructions:  353000003 cycles:  487295771 heartbeat IPC: 0.68986 cumulative IPC: 0.61980 (Simulation time: 0 hr 19 min 19 sec) 
Heartbeat CPU  0 instructions:  354000000 cycles:  488772929 heartbeat IPC: 0.67697 cumulative IPC: 0.62000 (Simulation time: 0 hr 19 min 22 sec) 
Heartbeat CPU  0 instructions:  355000000 cycles:  490238971 heartbeat IPC: 0.68211 cumulative IPC: 0.62022 (Simulation time: 0 hr 19 min 26 sec) 
Heartbeat CPU  0 instructions:  356000000 cycles:  491687855 heartbeat IPC: 0.69019 cumulative IPC: 0.62047 (Simulation time: 0 hr 19 min 30 sec) 
Heartbeat CPU  0 instructions:  357000002 cycles:  493164329 heartbeat IPC: 0.67729 cumulative IPC: 0.62067 (Simulation time: 0 hr 19 min 34 sec) 
Heartbeat CPU  0 instructions:  358000003 cycles:  494611077 heartbeat IPC: 0.69121 cumulative IPC: 0.62092 (Simulation time: 0 hr 19 min 37 sec) 
Heartbeat CPU  0 instructions:  359000000 cycles:  496095785 heartbeat IPC: 0.67353 cumulative IPC: 0.62111 (Simulation time: 0 hr 19 min 41 sec) 
Heartbeat CPU  0 instructions:  360000000 cycles:  497561174 heartbeat IPC: 0.68241 cumulative IPC: 0.62132 (Simulation time: 0 hr 19 min 45 sec) 
Heartbeat CPU  0 instructions:  361000002 cycles:  499014760 heartbeat IPC: 0.68796 cumulative IPC: 0.62155 (Simulation time: 0 hr 19 min 48 sec) 
Heartbeat CPU  0 instructions:  362000003 cycles:  500477877 heartbeat IPC: 0.68347 cumulative IPC: 0.62177 (Simulation time: 0 hr 19 min 52 sec) 
Heartbeat CPU  0 instructions:  363000003 cycles:  501928544 heartbeat IPC: 0.68934 cumulative IPC: 0.62200 (Simulation time: 0 hr 19 min 55 sec) 
Heartbeat CPU  0 instructions:  364000000 cycles:  503402066 heartbeat IPC: 0.67864 cumulative IPC: 0.62219 (Simulation time: 0 hr 19 min 59 sec) 
Heartbeat CPU  0 instructions:  365000003 cycles:  504838514 heartbeat IPC: 0.69616 cumulative IPC: 0.62244 (Simulation time: 0 hr 20 min 3 sec) 
Heartbeat CPU  0 instructions:  366000000 cycles:  506311648 heartbeat IPC: 0.67882 cumulative IPC: 0.62264 (Simulation time: 0 hr 20 min 6 sec) 
Heartbeat CPU  0 instructions:  367000001 cycles:  507779527 heartbeat IPC: 0.68126 cumulative IPC: 0.62284 (Simulation time: 0 hr 20 min 10 sec) 
Heartbeat CPU  0 instructions:  368000000 cycles:  509217510 heartbeat IPC: 0.69542 cumulative IPC: 0.62308 (Simulation time: 0 hr 20 min 14 sec) 
Heartbeat CPU  0 instructions:  369000003 cycles:  510684732 heartbeat IPC: 0.68156 cumulative IPC: 0.62328 (Simulation time: 0 hr 20 min 17 sec) 
Heartbeat CPU  0 instructions:  370000000 cycles:  512145117 heartbeat IPC: 0.68475 cumulative IPC: 0.62349 (Simulation time: 0 hr 20 min 20 sec) 
Heartbeat CPU  0 instructions:  371000000 cycles:  513616602 heartbeat IPC: 0.67959 cumulative IPC: 0.62368 (Simulation time: 0 hr 20 min 24 sec) 
Heartbeat CPU  0 instructions:  372000000 cycles:  515099866 heartbeat IPC: 0.67419 cumulative IPC: 0.62385 (Simulation time: 0 hr 20 min 27 sec) 
Heartbeat CPU  0 instructions:  373000000 cycles:  516542482 heartbeat IPC: 0.69319 cumulative IPC: 0.62408 (Simulation time: 0 hr 20 min 31 sec) 
Heartbeat CPU  0 instructions:  374000003 cycles:  518027749 heartbeat IPC: 0.67328 cumulative IPC: 0.62424 (Simulation time: 0 hr 20 min 34 sec) 
Heartbeat CPU  0 instructions:  375000002 cycles:  519455008 heartbeat IPC: 0.70064 cumulative IPC: 0.62449 (Simulation time: 0 hr 20 min 37 sec) 
Heartbeat CPU  0 instructions:  376000000 cycles:  520940498 heartbeat IPC: 0.67318 cumulative IPC: 0.62466 (Simulation time: 0 hr 20 min 41 sec) 
Heartbeat CPU  0 instructions:  377000003 cycles:  522371353 heartbeat IPC: 0.69888 cumulative IPC: 0.62490 (Simulation time: 0 hr 20 min 44 sec) 
Heartbeat CPU  0 instructions:  378000000 cycles:  523829655 heartbeat IPC: 0.68573 cumulative IPC: 0.62510 (Simulation time: 0 hr 20 min 47 sec) 
Heartbeat CPU  0 instructions:  379000001 cycles:  525298987 heartbeat IPC: 0.68058 cumulative IPC: 0.62528 (Simulation time: 0 hr 20 min 51 sec) 
Heartbeat CPU  0 instructions:  380000000 cycles:  526720440 heartbeat IPC: 0.70350 cumulative IPC: 0.62553 (Simulation time: 0 hr 20 min 54 sec) 
Heartbeat CPU  0 instructions:  381000002 cycles:  528181652 heartbeat IPC: 0.68436 cumulative IPC: 0.62572 (Simulation time: 0 hr 20 min 57 sec) 
Heartbeat CPU  0 instructions:  382000003 cycles:  529658385 heartbeat IPC: 0.67717 cumulative IPC: 0.62589 (Simulation time: 0 hr 21 min 1 sec) 
Heartbeat CPU  0 instructions:  383000000 cycles:  531110016 heartbeat IPC: 0.68888 cumulative IPC: 0.62609 (Simulation time: 0 hr 21 min 4 sec) 
Heartbeat CPU  0 instructions:  384000000 cycles:  532592096 heartbeat IPC: 0.67473 cumulative IPC: 0.62625 (Simulation time: 0 hr 21 min 7 sec) 
Heartbeat CPU  0 instructions:  385000003 cycles:  534021643 heartbeat IPC: 0.69952 cumulative IPC: 0.62648 (Simulation time: 0 hr 21 min 11 sec) 
Heartbeat CPU  0 instructions:  386000000 cycles:  535507533 heartbeat IPC: 0.67300 cumulative IPC: 0.62663 (Simulation time: 0 hr 21 min 14 sec) 
Heartbeat CPU  0 instructions:  387000002 cycles:  536945789 heartbeat IPC: 0.69529 cumulative IPC: 0.62685 (Simulation time: 0 hr 21 min 17 sec) 
Heartbeat CPU  0 instructions:  388000000 cycles:  538435165 heartbeat IPC: 0.67142 cumulative IPC: 0.62699 (Simulation time: 0 hr 21 min 21 sec) 
Heartbeat CPU  0 instructions:  389000000 cycles:  539904720 heartbeat IPC: 0.68048 cumulative IPC: 0.62716 (Simulation time: 0 hr 21 min 24 sec) 
Heartbeat CPU  0 instructions:  390000000 cycles:  541336429 heartbeat IPC: 0.69847 cumulative IPC: 0.62738 (Simulation time: 0 hr 21 min 28 sec) 
Heartbeat CPU  0 instructions:  391000003 cycles:  542806043 heartbeat IPC: 0.68045 cumulative IPC: 0.62755 (Simulation time: 0 hr 21 min 31 sec) 
Heartbeat CPU  0 instructions:  392000000 cycles:  544242110 heartbeat IPC: 0.69634 cumulative IPC: 0.62776 (Simulation time: 0 hr 21 min 34 sec) 
Heartbeat CPU  0 instructions:  393000000 cycles:  545691224 heartbeat IPC: 0.69008 cumulative IPC: 0.62796 (Simulation time: 0 hr 21 min 38 sec) 
Heartbeat CPU  0 instructions:  394000000 cycles:  547181214 heartbeat IPC: 0.67115 cumulative IPC: 0.62809 (Simulation time: 0 hr 21 min 41 sec) 
Heartbeat CPU  0 instructions:  395000000 cycles:  548605096 heartbeat IPC: 0.70231 cumulative IPC: 0.62832 (Simulation time: 0 hr 21 min 45 sec) 
Heartbeat CPU  0 instructions:  396000000 cycles:  550090284 heartbeat IPC: 0.67332 cumulative IPC: 0.62846 (Simulation time: 0 hr 21 min 48 sec) 
Heartbeat CPU  0 instructions:  397000000 cycles:  551549321 heartbeat IPC: 0.68538 cumulative IPC: 0.62864 (Simulation time: 0 hr 21 min 51 sec) 
Heartbeat CPU  0 instructions:  398000001 cycles:  553012641 heartbeat IPC: 0.68338 cumulative IPC: 0.62880 (Simulation time: 0 hr 21 min 55 sec) 
Heartbeat CPU  0 instructions:  399000002 cycles:  554489177 heartbeat IPC: 0.67726 cumulative IPC: 0.62895 (Simulation time: 0 hr 21 min 58 sec) 
Heartbeat CPU  0 instructions:  400000000 cycles:  555935807 heartbeat IPC: 0.69126 cumulative IPC: 0.62914 (Simulation time: 0 hr 22 min 1 sec) 
Heartbeat CPU  0 instructions:  401000002 cycles:  557423437 heartbeat IPC: 0.67221 cumulative IPC: 0.62928 (Simulation time: 0 hr 22 min 5 sec) 
Heartbeat CPU  0 instructions:  402000003 cycles:  558865266 heartbeat IPC: 0.69356 cumulative IPC: 0.62947 (Simulation time: 0 hr 22 min 8 sec) 
Heartbeat CPU  0 instructions:  403000000 cycles:  560345071 heartbeat IPC: 0.67576 cumulative IPC: 0.62961 (Simulation time: 0 hr 22 min 11 sec) 
Heartbeat CPU  0 instructions:  404000000 cycles:  561819249 heartbeat IPC: 0.67834 cumulative IPC: 0.62976 (Simulation time: 0 hr 22 min 15 sec) 
Heartbeat CPU  0 instructions:  405000003 cycles:  563261069 heartbeat IPC: 0.69357 cumulative IPC: 0.62995 (Simulation time: 0 hr 22 min 18 sec) 
Heartbeat CPU  0 instructions:  406000000 cycles:  564727226 heartbeat IPC: 0.68205 cumulative IPC: 0.63011 (Simulation time: 0 hr 22 min 22 sec) 
Heartbeat CPU  0 instructions:  407000001 cycles:  566172991 heartbeat IPC: 0.69168 cumulative IPC: 0.63029 (Simulation time: 0 hr 22 min 25 sec) 
Heartbeat CPU  0 instructions:  408000000 cycles:  567632679 heartbeat IPC: 0.68508 cumulative IPC: 0.63046 (Simulation time: 0 hr 22 min 28 sec) 
Heartbeat CPU  0 instructions:  409000002 cycles:  569121794 heartbeat IPC: 0.67154 cumulative IPC: 0.63058 (Simulation time: 0 hr 22 min 32 sec) 
Heartbeat CPU  0 instructions:  410000000 cycles:  570563437 heartbeat IPC: 0.69365 cumulative IPC: 0.63077 (Simulation time: 0 hr 22 min 35 sec) 
Heartbeat CPU  0 instructions:  411000001 cycles:  572043886 heartbeat IPC: 0.67547 cumulative IPC: 0.63090 (Simulation time: 0 hr 22 min 38 sec) 
Heartbeat CPU  0 instructions:  412000000 cycles:  573489470 heartbeat IPC: 0.69176 cumulative IPC: 0.63108 (Simulation time: 0 hr 22 min 42 sec) 
Heartbeat CPU  0 instructions:  413000002 cycles:  574985377 heartbeat IPC: 0.66849 cumulative IPC: 0.63119 (Simulation time: 0 hr 22 min 45 sec) 
Heartbeat CPU  0 instructions:  414000001 cycles:  576455295 heartbeat IPC: 0.68031 cumulative IPC: 0.63134 (Simulation time: 0 hr 22 min 49 sec) 
Heartbeat CPU  0 instructions:  415000002 cycles:  577926323 heartbeat IPC: 0.67980 cumulative IPC: 0.63148 (Simulation time: 0 hr 22 min 52 sec) 
Heartbeat CPU  0 instructions:  416000000 cycles:  579403367 heartbeat IPC: 0.67703 cumulative IPC: 0.63161 (Simulation time: 0 hr 22 min 55 sec) 
Heartbeat CPU  0 instructions:  417000003 cycles:  580840797 heartbeat IPC: 0.69569 cumulative IPC: 0.63180 (Simulation time: 0 hr 22 min 59 sec) 
Heartbeat CPU  0 instructions:  418000000 cycles:  582304458 heartbeat IPC: 0.68322 cumulative IPC: 0.63195 (Simulation time: 0 hr 23 min 2 sec) 
Heartbeat CPU  0 instructions:  419000001 cycles:  583770486 heartbeat IPC: 0.68212 cumulative IPC: 0.63209 (Simulation time: 0 hr 23 min 5 sec) 
Heartbeat CPU  0 instructions:  420000000 cycles:  585206923 heartbeat IPC: 0.69617 cumulative IPC: 0.63227 (Simulation time: 0 hr 23 min 9 sec) 
Heartbeat CPU  0 instructions:  421000000 cycles:  586682056 heartbeat IPC: 0.67790 cumulative IPC: 0.63241 (Simulation time: 0 hr 23 min 12 sec) 
Heartbeat CPU  0 instructions:  422000001 cycles:  588119163 heartbeat IPC: 0.69584 cumulative IPC: 0.63259 (Simulation time: 0 hr 23 min 15 sec) 
Heartbeat CPU  0 instructions:  423000003 cycles:  589566002 heartbeat IPC: 0.69116 cumulative IPC: 0.63275 (Simulation time: 0 hr 23 min 19 sec) 
Heartbeat CPU  0 instructions:  424000000 cycles:  591027348 heartbeat IPC: 0.68430 cumulative IPC: 0.63290 (Simulation time: 0 hr 23 min 22 sec) 
Heartbeat CPU  0 instructions:  425000001 cycles:  592491379 heartbeat IPC: 0.68305 cumulative IPC: 0.63304 (Simulation time: 0 hr 23 min 25 sec) 
Heartbeat CPU  0 instructions:  426000002 cycles:  593960103 heartbeat IPC: 0.68086 cumulative IPC: 0.63318 (Simulation time: 0 hr 23 min 29 sec) 
Heartbeat CPU  0 instructions:  427000000 cycles:  595410188 heartbeat IPC: 0.68961 cumulative IPC: 0.63334 (Simulation time: 0 hr 23 min 32 sec) 
Heartbeat CPU  0 instructions:  428000000 cycles:  596880499 heartbeat IPC: 0.68013 cumulative IPC: 0.63347 (Simulation time: 0 hr 23 min 35 sec) 
Heartbeat CPU  0 instructions:  429000000 cycles:  598331141 heartbeat IPC: 0.68935 cumulative IPC: 0.63363 (Simulation time: 0 hr 23 min 39 sec) 
Heartbeat CPU  0 instructions:  430000000 cycles:  599784449 heartbeat IPC: 0.68809 cumulative IPC: 0.63378 (Simulation time: 0 hr 23 min 42 sec) 
Heartbeat CPU  0 instructions:  431000002 cycles:  601343747 heartbeat IPC: 0.64132 cumulative IPC: 0.63380 (Simulation time: 0 hr 23 min 46 sec) 
Heartbeat CPU  0 instructions:  432000000 cycles:  602998518 heartbeat IPC: 0.60431 cumulative IPC: 0.63371 (Simulation time: 0 hr 23 min 49 sec) 
Heartbeat CPU  0 instructions:  433000001 cycles:  604570501 heartbeat IPC: 0.63614 cumulative IPC: 0.63371 (Simulation time: 0 hr 23 min 53 sec) 
Heartbeat CPU  0 instructions:  434000000 cycles:  606119063 heartbeat IPC: 0.64576 cumulative IPC: 0.63375 (Simulation time: 0 hr 23 min 56 sec) 
Heartbeat CPU  0 instructions:  435000003 cycles:  607625237 heartbeat IPC: 0.66394 cumulative IPC: 0.63384 (Simulation time: 0 hr 24 min 0 sec) 
Heartbeat CPU  0 instructions:  436000000 cycles:  609107365 heartbeat IPC: 0.67470 cumulative IPC: 0.63395 (Simulation time: 0 hr 24 min 3 sec) 
Heartbeat CPU  0 instructions:  437000002 cycles:  610566181 heartbeat IPC: 0.68549 cumulative IPC: 0.63409 (Simulation time: 0 hr 24 min 6 sec) 
Heartbeat CPU  0 instructions:  438000001 cycles:  612030927 heartbeat IPC: 0.68271 cumulative IPC: 0.63423 (Simulation time: 0 hr 24 min 9 sec) 
Heartbeat CPU  0 instructions:  439000000 cycles:  613483296 heartbeat IPC: 0.68853 cumulative IPC: 0.63437 (Simulation time: 0 hr 24 min 13 sec) 
Heartbeat CPU  0 instructions:  440000000 cycles:  614954398 heartbeat IPC: 0.67976 cumulative IPC: 0.63450 (Simulation time: 0 hr 24 min 16 sec) 
Heartbeat CPU  0 instructions:  441000001 cycles:  616435541 heartbeat IPC: 0.67515 cumulative IPC: 0.63461 (Simulation time: 0 hr 24 min 19 sec) 
Heartbeat CPU  0 instructions:  442000000 cycles:  617870064 heartbeat IPC: 0.69710 cumulative IPC: 0.63478 (Simulation time: 0 hr 24 min 23 sec) 
Heartbeat CPU  0 instructions:  443000000 cycles:  619323309 heartbeat IPC: 0.68812 cumulative IPC: 0.63492 (Simulation time: 0 hr 24 min 26 sec) 
Heartbeat CPU  0 instructions:  444000000 cycles:  620810709 heartbeat IPC: 0.67231 cumulative IPC: 0.63502 (Simulation time: 0 hr 24 min 29 sec) 
Heartbeat CPU  0 instructions:  445000002 cycles:  622279982 heartbeat IPC: 0.68061 cumulative IPC: 0.63515 (Simulation time: 0 hr 24 min 33 sec) 
Heartbeat CPU  0 instructions:  446000001 cycles:  623761056 heartbeat IPC: 0.67519 cumulative IPC: 0.63525 (Simulation time: 0 hr 24 min 36 sec) 
Heartbeat CPU  0 instructions:  447000003 cycles:  625217489 heartbeat IPC: 0.68661 cumulative IPC: 0.63539 (Simulation time: 0 hr 24 min 39 sec) 
Heartbeat CPU  0 instructions:  448000000 cycles:  626730194 heartbeat IPC: 0.66107 cumulative IPC: 0.63546 (Simulation time: 0 hr 24 min 43 sec) 
Heartbeat CPU  0 instructions:  449000000 cycles:  628224235 heartbeat IPC: 0.66933 cumulative IPC: 0.63555 (Simulation time: 0 hr 24 min 46 sec) 
Heartbeat CPU  0 instructions:  450000003 cycles:  629668046 heartbeat IPC: 0.69261 cumulative IPC: 0.63570 (Simulation time: 0 hr 24 min 49 sec) 
Heartbeat CPU  0 instructions:  451000000 cycles:  631152890 heartbeat IPC: 0.67347 cumulative IPC: 0.63581 (Simulation time: 0 hr 24 min 53 sec) 
Heartbeat CPU  0 instructions:  452000000 cycles:  632646252 heartbeat IPC: 0.66963 cumulative IPC: 0.63590 (Simulation time: 0 hr 24 min 56 sec) 
Heartbeat CPU  0 instructions:  453000001 cycles:  634111347 heartbeat IPC: 0.68255 cumulative IPC: 0.63602 (Simulation time: 0 hr 25 min 0 sec) 
Heartbeat CPU  0 instructions:  454000000 cycles:  635575051 heartbeat IPC: 0.68320 cumulative IPC: 0.63614 (Simulation time: 0 hr 25 min 3 sec) 
Heartbeat CPU  0 instructions:  455000000 cycles:  637048706 heartbeat IPC: 0.67858 cumulative IPC: 0.63626 (Simulation time: 0 hr 25 min 6 sec) 
Heartbeat CPU  0 instructions:  456000000 cycles:  638536551 heartbeat IPC: 0.67211 cumulative IPC: 0.63635 (Simulation time: 0 hr 25 min 10 sec) 
Heartbeat CPU  0 instructions:  457000002 cycles:  639995954 heartbeat IPC: 0.68521 cumulative IPC: 0.63648 (Simulation time: 0 hr 25 min 13 sec) 
Heartbeat CPU  0 instructions:  458000003 cycles:  641482098 heartbeat IPC: 0.67288 cumulative IPC: 0.63657 (Simulation time: 0 hr 25 min 16 sec) 
Heartbeat CPU  0 instructions:  459000001 cycles:  642952819 heartbeat IPC: 0.67994 cumulative IPC: 0.63669 (Simulation time: 0 hr 25 min 20 sec) 
Heartbeat CPU  0 instructions:  460000000 cycles:  644425596 heartbeat IPC: 0.67899 cumulative IPC: 0.63680 (Simulation time: 0 hr 25 min 23 sec) 
Heartbeat CPU  0 instructions:  461000002 cycles:  645914684 heartbeat IPC: 0.67155 cumulative IPC: 0.63689 (Simulation time: 0 hr 25 min 27 sec) 
Heartbeat CPU  0 instructions:  462000003 cycles:  647390415 heartbeat IPC: 0.67763 cumulative IPC: 0.63700 (Simulation time: 0 hr 25 min 30 sec) 
Heartbeat CPU  0 instructions:  463000002 cycles:  648911680 heartbeat IPC: 0.65735 cumulative IPC: 0.63705 (Simulation time: 0 hr 25 min 33 sec) 
Heartbeat CPU  0 instructions:  464000000 cycles:  650356627 heartbeat IPC: 0.69207 cumulative IPC: 0.63719 (Simulation time: 0 hr 25 min 37 sec) 
Heartbeat CPU  0 instructions:  465000001 cycles:  651824583 heartbeat IPC: 0.68122 cumulative IPC: 0.63730 (Simulation time: 0 hr 25 min 40 sec) 
Heartbeat CPU  0 instructions:  466000000 cycles:  653347378 heartbeat IPC: 0.65669 cumulative IPC: 0.63735 (Simulation time: 0 hr 25 min 44 sec) 
Heartbeat CPU  0 instructions:  467000001 cycles:  654837769 heartbeat IPC: 0.67097 cumulative IPC: 0.63744 (Simulation time: 0 hr 25 min 47 sec) 
Heartbeat CPU  0 instructions:  468000000 cycles:  656304517 heartbeat IPC: 0.68178 cumulative IPC: 0.63755 (Simulation time: 0 hr 25 min 50 sec) 
Heartbeat CPU  0 instructions:  469000002 cycles:  657758609 heartbeat IPC: 0.68772 cumulative IPC: 0.63768 (Simulation time: 0 hr 25 min 54 sec) 
Heartbeat CPU  0 instructions:  470000003 cycles:  659255462 heartbeat IPC: 0.66807 cumulative IPC: 0.63776 (Simulation time: 0 hr 25 min 57 sec) 
Heartbeat CPU  0 instructions:  471000002 cycles:  660768281 heartbeat IPC: 0.66102 cumulative IPC: 0.63782 (Simulation time: 0 hr 26 min 0 sec) 
Heartbeat CPU  0 instructions:  472000000 cycles:  662215720 heartbeat IPC: 0.69087 cumulative IPC: 0.63795 (Simulation time: 0 hr 26 min 4 sec) 
Heartbeat CPU  0 instructions:  473000001 cycles:  663704924 heartbeat IPC: 0.67150 cumulative IPC: 0.63803 (Simulation time: 0 hr 26 min 7 sec) 
Heartbeat CPU  0 instructions:  474000000 cycles:  665205044 heartbeat IPC: 0.66661 cumulative IPC: 0.63811 (Simulation time: 0 hr 26 min 11 sec) 
Heartbeat CPU  0 instructions:  475000001 cycles:  666668038 heartbeat IPC: 0.68353 cumulative IPC: 0.63822 (Simulation time: 0 hr 26 min 14 sec) 
Heartbeat CPU  0 instructions:  476000000 cycles:  668151080 heartbeat IPC: 0.67429 cumulative IPC: 0.63831 (Simulation time: 0 hr 26 min 17 sec) 
Heartbeat CPU  0 instructions:  477000003 cycles:  669601629 heartbeat IPC: 0.68940 cumulative IPC: 0.63844 (Simulation time: 0 hr 26 min 21 sec) 
Heartbeat CPU  0 instructions:  478000002 cycles:  671123702 heartbeat IPC: 0.65700 cumulative IPC: 0.63849 (Simulation time: 0 hr 26 min 24 sec) 
Heartbeat CPU  0 instructions:  479000003 cycles:  672591130 heartbeat IPC: 0.68147 cumulative IPC: 0.63859 (Simulation time: 0 hr 26 min 27 sec) 
Heartbeat CPU  0 instructions:  480000000 cycles:  674061316 heartbeat IPC: 0.68018 cumulative IPC: 0.63869 (Simulation time: 0 hr 26 min 31 sec) 
Heartbeat CPU  0 instructions:  481000000 cycles:  675532429 heartbeat IPC: 0.67976 cumulative IPC: 0.63880 (Simulation time: 0 hr 26 min 34 sec) 
Heartbeat CPU  0 instructions:  482000003 cycles:  676976006 heartbeat IPC: 0.69273 cumulative IPC: 0.63893 (Simulation time: 0 hr 26 min 38 sec) 
Heartbeat CPU  0 instructions:  483000000 cycles:  678450407 heartbeat IPC: 0.67824 cumulative IPC: 0.63902 (Simulation time: 0 hr 26 min 41 sec) 
Heartbeat CPU  0 instructions:  484000000 cycles:  679915472 heartbeat IPC: 0.68256 cumulative IPC: 0.63913 (Simulation time: 0 hr 26 min 44 sec) 
Heartbeat CPU  0 instructions:  485000001 cycles:  681397465 heartbeat IPC: 0.67477 cumulative IPC: 0.63922 (Simulation time: 0 hr 26 min 48 sec) 
Heartbeat CPU  0 instructions:  486000000 cycles:  682878763 heartbeat IPC: 0.67508 cumulative IPC: 0.63930 (Simulation time: 0 hr 26 min 51 sec) 
Heartbeat CPU  0 instructions:  487000001 cycles:  684326605 heartbeat IPC: 0.69068 cumulative IPC: 0.63943 (Simulation time: 0 hr 26 min 54 sec) 
Heartbeat CPU  0 instructions:  488000000 cycles:  685820805 heartbeat IPC: 0.66925 cumulative IPC: 0.63950 (Simulation time: 0 hr 26 min 58 sec) 
Heartbeat CPU  0 instructions:  489000002 cycles:  687307101 heartbeat IPC: 0.67281 cumulative IPC: 0.63958 (Simulation time: 0 hr 27 min 1 sec) 
Heartbeat CPU  0 instructions:  490000001 cycles:  688775230 heartbeat IPC: 0.68114 cumulative IPC: 0.63968 (Simulation time: 0 hr 27 min 5 sec) 
Heartbeat CPU  0 instructions:  491000001 cycles:  690253953 heartbeat IPC: 0.67626 cumulative IPC: 0.63977 (Simulation time: 0 hr 27 min 8 sec) 
Heartbeat CPU  0 instructions:  492000000 cycles:  691735033 heartbeat IPC: 0.67518 cumulative IPC: 0.63986 (Simulation time: 0 hr 27 min 11 sec) 
Heartbeat CPU  0 instructions:  493000003 cycles:  693255469 heartbeat IPC: 0.65771 cumulative IPC: 0.63990 (Simulation time: 0 hr 27 min 15 sec) 
Heartbeat CPU  0 instructions:  494000001 cycles:  694713160 heartbeat IPC: 0.68602 cumulative IPC: 0.64001 (Simulation time: 0 hr 27 min 18 sec) 
Heartbeat CPU  0 instructions:  495000000 cycles:  696193672 heartbeat IPC: 0.67544 cumulative IPC: 0.64009 (Simulation time: 0 hr 27 min 21 sec) 
Heartbeat CPU  0 instructions:  496000000 cycles:  697720447 heartbeat IPC: 0.65498 cumulative IPC: 0.64013 (Simulation time: 0 hr 27 min 25 sec) 
Heartbeat CPU  0 instructions:  497000002 cycles:  699208021 heartbeat IPC: 0.67224 cumulative IPC: 0.64021 (Simulation time: 0 hr 27 min 28 sec) 
Heartbeat CPU  0 instructions:  498000000 cycles:  700679500 heartbeat IPC: 0.67959 cumulative IPC: 0.64030 (Simulation time: 0 hr 27 min 32 sec) 
Heartbeat CPU  0 instructions:  499000001 cycles:  702135920 heartbeat IPC: 0.68662 cumulative IPC: 0.64041 (Simulation time: 0 hr 27 min 35 sec) 
Heartbeat CPU  0 instructions:  500000000 cycles:  703649572 heartbeat IPC: 0.66065 cumulative IPC: 0.64046 (Simulation time: 0 hr 27 min 38 sec) 
Heartbeat CPU  0 instructions:  501000000 cycles:  705136162 heartbeat IPC: 0.67268 cumulative IPC: 0.64054 (Simulation time: 0 hr 27 min 42 sec) 
Heartbeat CPU  0 instructions:  502000003 cycles:  706575339 heartbeat IPC: 0.69484 cumulative IPC: 0.64066 (Simulation time: 0 hr 27 min 45 sec) 
Heartbeat CPU  0 instructions:  503000003 cycles:  708069107 heartbeat IPC: 0.66945 cumulative IPC: 0.64073 (Simulation time: 0 hr 27 min 49 sec) 
Heartbeat CPU  0 instructions:  504000000 cycles:  709567535 heartbeat IPC: 0.66736 cumulative IPC: 0.64079 (Simulation time: 0 hr 27 min 52 sec) 
Heartbeat CPU  0 instructions:  505000001 cycles:  711046123 heartbeat IPC: 0.67632 cumulative IPC: 0.64087 (Simulation time: 0 hr 27 min 55 sec) 
Heartbeat CPU  0 instructions:  506000001 cycles:  712508797 heartbeat IPC: 0.68368 cumulative IPC: 0.64097 (Simulation time: 0 hr 27 min 59 sec) 
Heartbeat CPU  0 instructions:  507000003 cycles:  713954919 heartbeat IPC: 0.69151 cumulative IPC: 0.64109 (Simulation time: 0 hr 28 min 2 sec) 
Heartbeat CPU  0 instructions:  508000000 cycles:  715429303 heartbeat IPC: 0.67825 cumulative IPC: 0.64117 (Simulation time: 0 hr 28 min 6 sec) 
Heartbeat CPU  0 instructions:  509000000 cycles:  716894236 heartbeat IPC: 0.68263 cumulative IPC: 0.64127 (Simulation time: 0 hr 28 min 9 sec) 
Heartbeat CPU  0 instructions:  510000002 cycles:  718406275 heartbeat IPC: 0.66136 cumulative IPC: 0.64132 (Simulation time: 0 hr 28 min 12 sec) 
Heartbeat CPU  0 instructions:  511000003 cycles:  719915408 heartbeat IPC: 0.66263 cumulative IPC: 0.64137 (Simulation time: 0 hr 28 min 16 sec) 
Heartbeat CPU  0 instructions:  512000000 cycles:  721388394 heartbeat IPC: 0.67889 cumulative IPC: 0.64145 (Simulation time: 0 hr 28 min 19 sec) 
[...]
scooby_state_447747|15|0 1,0,0,0,0,0,0,0,0,0,0,0,0,0,0,1,
scooby_state_4499f8|11|-21 1,0,0,0,0,0,0,0,0,0,0,0,0,0,0,1,
scooby_state_44808f|18|0 1,0,0,0,0,0,0,0,0,0,0,0,0,0,0,1,
scooby_state_449875|56|38 1,0,0,0,0,0,0,0,0,0,0,0,0,0,0,1,
scooby_state_447f28|63|25 1,0,0,0,0,0,0,0,0,0,0,0,0,0,0,1,
scooby_state_449875|48|11 1,0,0,0,0,0,0,0,0,0,0,0,0,0,0,1,
scooby_state_4480e2|20|9 1,0,0,0,0,0,0,0,0,0,0,0,0,0,0,1,
scooby_state_449791|11|-52 1,0,0,0,0,0,0,0,0,0,0,0,0,0,0,1,
scooby_state_448c67|35|29 1,0,0,0,0,0,0,0,0,0,0,0,0,0,0,1,
scooby_state_44677e|53|28 1,0,0,0,0,0,0,0,0,0,0,0,0,0,0,1,
scooby_state_447da2|52|-11 1,0,0,0,0,0,0,0,0,0,0,0,0,0,0,1,
scooby_state_44660f|0|-29 1,0,0,0,0,0,0,0,0,0,0,0,0,0,0,1,
scooby_state_44a203|53|35 1,0,0,0,0,0,0,0,0,0,0,0,0,0,0,1,
scooby_state_44967a|39|0 1,0,0,0,0,0,0,0,0,0,0,0,0,0,0,1,
scooby_state_449647|52|33 1,0,0,0,0,0,0,0,0,0,0,0,0,0,0,1,
scooby_state_446741|25|25 1,0,0,0,0,0,0,0,0,0,0,0,0,0,0,1,
scooby_state_449764|43|13 1,0,0,0,0,0,0,0,0,0,0,0,0,0,0,1,
scooby_state_446dd2|59|47 1,0,0,0,0,0,0,0,0,0,0,0,0,0,0,1,
scooby_state_4497b0|10|1 1,0,0,0,0,0,0,0,0,0,0,0,0,0,0,1,
scooby_state_447771|24|9 1,0,0,0,0,0,0,0,0,0,0,0,0,0,0,1,
scooby_state_449f92|15|-29 1,0,0,0,0,0,0,0,0,0,0,0,0,0,0,1,
scooby_state_44677e|37|0 1,0,0,0,0,0,0,0,0,0,0,0,0,0,0,1,
scooby_state_4486a9|48|4 1,0,0,0,0,0,0,0,0,0,0,0,0,0,0,1,
scooby_state_449764|33|4 1,0,0,0,0,0,0,0,0,0,0,0,0,0,0,1,
scooby_state_44a12c|39|6 1,0,0,0,0,0,0,0,0,0,0,0,0,0,0,1,
scooby_state_447f28|6|1 1,0,0,0,0,0,0,0,0,0,0,0,0,0,0,1,
scooby_state_446635|3|0 1,0,0,0,0,0,0,0,0,0,0,0,0,0,0,1,
scooby_state_4498d4|30|21 1,0,0,0,0,0,0,0,0,0,0,0,0,0,0,1,
scooby_state_44660f|61|28 1,0,0,0,0,0,0,0,0,0,0,0,0,0,0,1,
scooby_state_448d84|24|-32 1,0,0,0,0,0,0,0,0,0,0,0,0,0,0,1,
scooby_state_446d5d|62|41 1,0,0,0,0,0,0,0,0,0,0,0,0,0,0,1,
scooby_state_448cc9|50|17 1,0,0,0,0,0,0,0,0,0,0,0,0,0,0,1,
scooby_state_4497c4|14|-30 1,0,0,0,0,0,0,0,0,0,0,0,0,0,0,1,
scooby_state_44660f|12|0 1,0,0,0,0,0,0,0,0,0,0,0,0,0,0,1,
scooby_state_448c67|7|0 1,0,0,0,0,0,0,0,0,0,0,0,0,0,0,1,
scooby_state_44660f|45|28 1,0,0,0,0,0,0,0,0,0,0,0,0,0,0,1,
scooby_state_448274|22|-11 1,0,0,0,0,0,0,0,0,0,0,0,0,0,0,1,
scooby_state_447edc|24|-19 1,0,0,0,0,0,0,0,0,0,0,0,0,0,0,1,
scooby_state_447edc|23|11 1,0,0,0,0,0,0,0,0,0,0,0,0,0,0,1,
scooby_state_4466cc|62|22 1,0,0,0,0,0,0,0,0,0,0,0,0,0,0,1,
scooby_state_44744b|42|2 1,0,0,0,0,0,0,0,0,0,0,0,0,0,0,1,
scooby_state_44744b|62|22 1,0,0,0,0,0,0,0,0,0,0,0,0,0,0,1,
scooby_state_4497c4|58|5 1,0,0,0,0,0,0,0,0,0,0,0,0,0,0,1,
scooby_state_44738e|55|-2 1,0,0,0,0,0,0,0,0,0,0,0,0,0,0,1,
scooby_state_4466cc|63|50 1,0,0,0,0,0,0,0,0,0,0,0,0,0,0,1,
scooby_state_4497e7|55|0 1,0,0,0,0,0,0,0,0,0,0,0,0,0,0,1,
scooby_state_44a0a2|19|-23 1,0,0,0,0,0,0,0,0,0,0,0,0,0,0,1,
scooby_state_446245|9|1 1,0,0,0,0,0,0,0,0,0,0,0,0,0,0,1,
scooby_state_4475eb|51|-9 1,0,0,0,0,0,0,0,0,0,0,0,0,0,0,1,
scooby_state_449f92|56|5 1,0,0,0,0,0,0,0,0,0,0,0,0,0,0,1,
scooby_state_44677e|35|28 1,0,0,0,0,0,0,0,0,0,0,0,0,0,0,1,
scooby_state_44a2ab|21|0 1,0,0,0,0,0,0,0,0,0,0,0,0,0,0,1,
scooby_state_44804c|32|14 1,0,0,0,0,0,0,0,0,0,0,0,0,0,0,1,
scooby_state_448f63|19|0 1,0,0,0,0,0,0,0,0,0,0,0,0,0,0,1,
scooby_state_44a203|8|1 1,0,0,0,0,0,0,0,0,0,0,0,0,0,0,1,
scooby_state_44803d|50|4 1,0,0,0,0,0,0,0,0,0,0,0,0,0,0,1,
scooby_state_447e06|12|9 1,0,0,0,0,0,0,0,0,0,0,0,0,0,0,1,
scooby_state_44973a|24|24 1,0,0,0,0,0,0,0,0,0,0,0,0,0,0,1,
scooby_state_446e44|12|0 0,0,0,0,0,1,0,0,0,0,0,0,0,0,0,1,
scooby_state_449764|48|25 1,0,0,0,0,0,0,0,0,0,0,0,0,0,0,1,
scooby_state_4466d9|30|0 1,0,0,0,0,0,0,0,0,0,0,0,0,0,0,1,
scooby_state_4480e2|30|5 1,0,0,0,0,0,0,0,0,0,0,0,0,0,0,1,
scooby_state_447f28|45|2 1,0,0,0,0,0,0,0,0,0,0,0,0,0,0,1,
scooby_state_448486|2|1 1,0,0,0,0,0,0,0,0,0,0,0,0,0,0,1,
scooby_state_447eb2|5|-21 1,0,0,0,0,0,0,0,0,0,0,0,0,0,0,1,
scooby_state_44a12c|63|12 1,0,0,0,0,0,0,0,0,0,0,0,0,0,0,1,
scooby_state_448380|15|2 1,0,0,0,0,0,0,0,0,0,0,0,0,0,0,1,
scooby_state_449ff6|29|24 1,0,0,0,0,0,0,0,0,0,0,0,0,0,0,1,
scooby_state_4498d4|28|20 1,0,0,0,0,0,0,0,0,0,0,0,0,0,0,1,
scooby_state_44a0cc|37|5 1,0,0,0,0,0,0,0,0,0,0,0,0,0,0,1,
scooby_state_44996a|25|3 1,0,0,0,0,0,0,0,0,0,0,0,0,0,0,1,
scooby_state_4497c4|22|-27 1,0,0,0,0,0,0,0,0,0,0,0,0,0,0,1,
scooby_state_44677e|17|0 1,0,0,0,0,0,0,0,0,0,0,0,0,0,0,1,
scooby_state_448ee5|52|33 1,0,0,0,0,0,0,0,0,0,0,0,0,0,0,1,
scooby_state_4499f8|10|-12 1,0,0,0,0,0,0,0,0,0,0,0,0,0,0,1,
scooby_state_448ff8|42|0 1,0,0,0,0,0,0,0,0,0,0,0,0,0,0,1,
scooby_state_4469c8|19|-31 1,0,0,0,0,0,0,0,0,0,0,0,0,0,0,1,
scooby_state_448c4a|13|3 1,0,0,0,0,0,0,0,0,0,0,0,0,0,0,1,
scooby_state_448e95|60|5 1,0,0,0,0,0,0,0,0,0,0,0,0,0,0,1,
scooby_state_44a12c|63|9 1,0,0,0,0,0,0,0,0,0,0,0,0,0,0,1,
scooby_state_448d84|32|-22 1,0,0,0,0,0,0,0,0,0,0,0,0,0,0,1,
scooby_state_448d5a|7|-28 1,0,0,0,0,0,0,0,0,0,0,0,0,0,0,1,
scooby_state_447da2|6|-30 1,0,0,0,0,0,0,0,0,0,0,0,0,0,0,1,
scooby_state_44660f|6|0 1,0,0,0,0,0,0,0,0,0,0,0,0,0,0,1,
scooby_state_4465fb|51|0 1,0,0,0,0,0,0,0,0,0,0,0,0,0,0,1,
scooby_state_44a23c|9|-50 1,0,0,0,0,0,0,0,0,0,0,0,0,0,0,1,
scooby_state_4497c4|38|-25 1,0,0,0,0,0,0,0,0,0,0,0,0,0,0,1,
scooby_state_44a22d|8|-49 1,0,0,0,0,0,0,0,0,0,0,0,0,0,0,1,
scooby_state_44666f|36|35 1,0,0,0,0,0,0,0,0,0,0,0,0,0,0,1,
scooby_state_446783|30|1 1,0,0,0,0,0,0,0,0,0,0,0,0,0,0,1,
scooby_state_4497c4|31|-26 1,0,0,0,0,0,0,0,0,0,0,0,0,0,0,1,
scooby_state_44738e|60|57 1,0,0,0,0,0,0,0,0,0,0,0,0,0,0,1,
scooby_state_44993e|60|0 0,0,0,0,0,0,0,0,1,0,0,0,0,0,0,1,
scooby_state_44744b|1|0 0,0,0,1,0,0,0,0,0,0,0,0,0,0,0,1,
scooby_state_447346|13|1 1,0,0,0,0,0,0,0,0,0,0,0,0,0,0,1,
scooby_state_449703|46|37 1,0,0,0,0,0,0,0,0,0,0,0,0,0,0,1,
scooby_state_44660f|45|-1 1,0,0,0,0,0,0,0,0,0,0,0,0,0,0,1,
scooby_state_448170|10|-40 1,0,0,0,0,0,0,0,0,0,0,0,0,0,0,1,
scooby_state_446917|38|-1 1,0,0,0,0,0,0,0,0,0,0,0,0,0,0,1,
scooby_state_446d01|52|1 1,0,0,0,0,0,0,0,0,0,0,0,0,0,0,1,
scooby_state_448de4|53|5 1,0,0,0,0,0,0,0,0,0,0,0,0,0,0,1,
scooby_state_44677e|33|-29 1,0,0,0,0,0,0,0,0,0,0,0,0,0,0,1,
scooby_state_448393|34|-1 1,0,0,0,0,0,0,0,0,0,0,0,0,0,0,1,
scooby_state_4497c4|6|-27 1,0,0,0,0,0,0,0,0,0,0,0,0,0,0,1,
scooby_state_447f09|12|11 1,0,0,0,0,0,0,0,0,0,0,0,0,0,0,1,
scooby_state_44996a|9|-14 1,0,0,0,0,0,0,0,0,0,0,0,0,0,0,1,
scooby_state_4499f8|16|-6 1,0,0,0,0,0,0,0,0,0,0,0,0,0,0,1,
scooby_state_446303|12|1 1,0,0,0,0,0,0,0,0,0,0,0,0,0,0,1,
scooby_state_448b03|44|1 1,0,0,0,0,0,0,0,0,0,0,0,0,0,0,1,
scooby_state_44962a|6|-27 1,0,0,0,0,0,0,0,0,0,0,0,0,0,0,1,
scooby_state_44a1dd|2|-28 1,0,0,0,0,0,0,0,0,0,0,0,0,0,0,1,
scooby_state_4497c4|41|-22 1,0,0,0,0,0,0,0,0,0,0,0,0,0,0,1,
scooby_state_44973a|22|13 1,0,0,0,0,0,0,0,0,0,0,0,0,0,0,1,
scooby_state_44a23c|16|-16 1,0,0,0,0,0,0,0,0,0,0,0,0,0,0,1,
scooby_state_4475eb|49|24 1,0,0,0,0,0,0,0,0,0,0,0,0,0,0,1,
scooby_state_448ef4|27|-10 1,0,0,0,0,0,0,0,0,0,0,0,0,0,0,1,
scooby_state_4465fb|57|57 1,0,0,0,0,0,0,0,0,0,0,0,0,0,0,1,
scooby_state_447771|34|30 1,0,0,0,0,0,0,0,0,0,0,0,0,0,0,1,
scooby_state_44973a|7|-54 1,0,0,0,0,0,0,0,0,0,0,0,0,0,0,1,
scooby_state_44973a|8|4 1,0,0,0,0,0,0,0,0,0,0,0,0,0,0,1,
scooby_state_44a0a2|1|-43 1,0,0,0,0,0,0,0,0,0,0,0,0,0,0,1,
scooby_state_44660f|58|28 1,0,0,0,0,0,0,0,0,0,0,0,0,0,0,1,
scooby_state_448d5a|0|-41 1,0,0,0,0,0,0,0,0,0,0,0,0,0,0,1,
scooby_state_4473b4|17|0 0,0,1,0,0,0,0,0,0,0,0,0,0,0,0,1,
scooby_state_4465fb|52|0 1,0,0,0,0,0,0,0,0,0,0,0,0,0,0,1,
scooby_state_4486a9|55|0 1,0,0,0,0,0,0,0,0,0,0,0,0,0,0,1,
scooby_state_4499f8|1|-22 1,0,0,0,0,0,0,0,0,0,0,0,0,0,0,1,
scooby_state_44803d|52|40 1,0,0,0,0,0,0,0,0,0,0,0,0,0,0,1,
scooby_state_449875|63|37 1,0,0,0,0,0,0,0,0,0,0,0,0,0,0,1,
scooby_state_44a100|4|1 1,0,0,0,0,0,0,0,0,0,0,0,0,0,0,1,
scooby_state_44973a|0|-62 1,0,0,0,0,0,0,0,0,0,0,0,0,0,0,1,
scooby_state_44755d|4|4 1,0,0,0,0,0,0,0,0,0,0,0,0,0,0,1,
scooby_state_44677e|37|-1 1,0,0,0,0,0,0,0,0,0,0,0,0,0,0,1,
scooby_state_4468a5|6|-46 1,0,0,0,0,0,0,0,0,0,0,0,0,0,0,1,
scooby_state_44967a|16|0 1,0,0,0,0,0,0,0,0,0,0,0,0,0,0,1,
scooby_state_44962a|29|-26 1,0,0,0,0,0,0,0,0,0,0,0,0,0,0,1,
scooby_state_446902|62|0 1,0,0,0,0,0,0,0,0,0,0,0,0,0,0,1,
scooby_state_44a0a2|7|-22 1,0,0,0,0,0,0,0,0,0,0,0,0,0,0,1,
scooby_state_4465e9|60|0 1,0,0,0,0,0,0,0,0,0,0,0,0,0,0,1,
scooby_state_44677e|15|-29 1,0,0,0,0,0,0,0,0,0,0,0,0,0,0,1,
scooby_state_448f75|4|0 1,0,0,0,0,0,0,0,0,0,0,0,0,0,0,1,
scooby_state_44677e|35|-28 1,0,0,0,0,0,0,0,0,0,0,0,0,0,0,1,
scooby_state_447f28|51|2 1,0,0,0,0,0,0,0,0,0,0,0,0,0,0,1,
scooby_state_4469c8|16|-34 1,0,0,0,0,0,0,0,0,0,0,0,0,0,0,1,
scooby_state_447eb2|7|-16 1,0,0,0,0,0,0,0,0,0,0,0,0,0,0,1,
scooby_state_44660f|54|28 1,0,0,0,0,0,0,0,0,0,0,0,0,0,0,1,
scooby_state_448de4|62|0 1,0,0,0,0,0,0,0,0,0,0,0,0,0,0,1,
scooby_state_447747|9|-49 1,0,0,0,0,0,0,0,0,0,0,0,0,0,0,1,
scooby_state_449764|48|5 1,0,0,0,0,0,0,0,0,0,0,0,0,0,0,1,
scooby_state_44677e|44|0 1,0,0,0,0,0,0,0,0,0,0,0,0,0,0,1,
scooby_state_44819a|28|-35 1,0,0,0,0,0,0,0,0,0,0,0,0,0,0,1,
scooby_state_44a2ab|57|32 1,0,0,0,0,0,0,0,0,0,0,0,0,0,0,1,
scooby_state_447eb2|0|-60 1,0,0,0,0,0,0,0,0,0,0,0,0,0,0,1,
scooby_state_44a23c|17|3 1,0,0,0,0,0,0,0,0,0,0,0,0,0,0,1,
scooby_state_4473cf|11|-37 1,0,0,0,0,0,0,0,0,0,0,0,0,0,0,1,
scooby_state_44a23c|13|0 1,0,0,0,0,0,0,0,0,0,0,0,0,0,0,1,
scooby_state_4487bc|22|1 1,0,0,0,0,0,0,0,0,0,0,0,0,0,0,1,
scooby_state_44a1e3|41|0 1,0,0,0,0,0,0,0,0,0,0,0,0,0,0,1,
scooby_state_447538|3|0 1,0,0,0,0,0,0,0,0,0,0,0,0,0,0,1,
scooby_state_446626|56|29 1,0,0,0,0,0,0,0,0,0,0,0,0,0,0,1,
scooby_state_44a14f|12|0 1,0,0,0,0,0,0,0,0,0,0,0,0,0,0,1,
scooby_state_44967a|36|0 1,0,0,0,0,0,0,0,0,0,0,0,0,0,0,1,
scooby_state_446f84|62|1 0,1,0,0,0,0,0,0,0,0,0,0,0,0,0,1,
scooby_state_4499f8|20|-2 1,0,0,0,0,0,0,0,0,0,0,0,0,0,0,1,
scooby_state_44a2d2|8|-54 1,0,0,0,0,0,0,0,0,0,0,0,0,0,0,1,
scooby_state_447747|10|0 1,0,0,0,0,0,0,0,0,0,0,0,0,0,0,1,
scooby_state_44660f|42|1 1,0,0,0,0,0,0,0,0,0,0,0,0,0,0,1,
scooby_state_448c4a|39|-24 1,0,0,0,0,0,0,0,0,0,0,0,0,0,0,1,
scooby_state_4487bc|34|1 1,0,0,0,0,0,0,0,0,0,0,0,0,0,0,1,
scooby_state_44677e|35|1 1,0,0,0,0,0,0,0,0,0,0,0,0,0,0,1,
scooby_state_44808f|34|0 1,0,0,0,0,0,0,0,0,0,0,0,0,0,0,1,
scooby_state_447f5f|57|0 1,0,0,0,0,0,0,0,0,0,0,0,0,0,0,1,
scooby_state_44755d|14|14 1,0,0,0,0,0,0,0,0,0,0,0,0,0,0,1,
scooby_state_448013|26|-32 1,0,0,0,0,0,0,0,0,0,0,0,0,0,0,1,
scooby_state_4497c4|16|-27 1,0,0,0,0,0,0,0,0,0,0,0,0,0,0,1,
scooby_state_4497b0|17|1 1,0,0,0,0,0,0,0,0,0,0,0,0,0,0,1,
scooby_state_44a12c|27|-27 1,0,0,0,0,0,0,0,0,0,0,0,0,0,0,1,
scooby_state_44804c|23|15 1,0,0,0,0,0,0,0,0,0,0,0,0,0,0,1,
scooby_state_447edc|46|2 1,0,0,0,0,0,0,0,0,0,0,0,0,0,0,1,
scooby_state_4486a0|8|4 0,0,0,0,0,0,0,0,0,0,0,1,0,0,0,1,
scooby_state_4469c8|13|-37 0,1,0,0,0,0,0,0,0,0,0,0,0,0,0,1,
scooby_state_44677e|29|-1 1,0,0,0,0,0,0,0,0,0,0,0,0,0,0,1,
scooby_state_44a340|31|0 1,0,0,0,0,0,0,0,0,0,0,0,0,0,0,1,
scooby_state_44a078|12|0 1,0,0,0,0,0,0,0,0,0,0,0,0,0,0,1,
scooby_state_4486ec|36|3 1,0,0,0,0,0,0,0,0,0,0,0,0,0,0,1,
scooby_state_447747|12|0 1,0,0,0,0,0,0,0,0,0,0,0,0,0,0,1,
scooby_state_448ebb|39|15 1,0,0,0,0,0,0,0,0,0,0,0,0,0,0,1,
scooby_state_446650|11|-51 1,0,0,0,0,0,0,0,0,0,0,0,0,0,0,1,
scooby_state_4481c3|7|1 1,0,0,0,0,0,0,0,0,0,0,0,0,0,0,1,
scooby_state_446772|44|29 1,0,0,0,0,0,0,0,0,0,0,0,0,0,0,1,
scooby_state_446907|44|29 1,0,0,0,0,0,0,0,0,0,0,0,0,0,0,1,
scooby_state_4474f1|52|30 0,0,0,0,0,0,0,0,0,0,0,0,0,0,1,1,
scooby_state_4474f1|59|30 0,0,0,0,0,0,0,0,0,0,0,0,0,0,1,1,
scooby_state_447f85|62|1 1,0,0,0,0,0,0,0,0,0,0,0,0,0,0,1,
scooby_state_447dbf|53|33 1,0,0,0,0,0,0,0,0,0,0,0,0,0,0,1,
scooby_state_448e95|49|36 1,0,0,0,0,0,0,0,0,0,0,0,0,0,0,1,
scooby_state_446626|62|29 1,0,0,0,0,0,0,0,0,0,0,0,0,0,0,1,
scooby_state_4480e2|7|-2 1,0,0,0,0,0,0,0,0,0,0,0,0,0,0,1,
scooby_state_449703|41|32 1,0,0,0,0,0,0,0,0,0,0,0,0,0,0,1,
scooby_state_447615|59|50 1,0,0,0,0,0,0,0,0,0,0,0,0,0,0,1,
scooby_state_446e44|2|2 1,0,0,0,0,0,0,0,0,0,0,0,0,0,0,1,
scooby_state_44843f|14|1 1,0,0,0,0,0,0,0,0,0,0,0,0,0,0,1,
scooby_state_4484f8|8|1 1,0,0,0,0,0,0,0,0,0,0,0,0,0,0,1,
scooby_state_44973a|0|-57 1,0,0,0,0,0,0,0,0,0,0,0,0,0,0,1,
scooby_state_44989b|54|39 1,0,0,0,0,0,0,0,0,0,0,0,0,0,0,1,
scooby_state_4497b0|21|1 1,0,0,0,0,0,0,0,0,0,0,0,0,0,0,1,
scooby_state_4475cb|59|0 1,0,0,0,0,0,0,0,0,0,0,0,0,0,0,1,
scooby_state_44783b|32|23 1,0,0,0,0,0,0,0,0,0,0,0,0,0,0,1,
scooby_state_448d84|23|-12 1,0,0,0,0,0,0,0,0,0,0,0,0,0,0,1,
scooby_state_448cc9|61|32 1,0,0,0,0,0,0,0,0,0,0,0,0,0,0,1,
scooby_state_446791|60|58 1,0,0,0,0,0,0,0,0,0,0,0,0,0,0,1,
scooby_state_446dd2|53|15 1,0,0,0,0,0,0,0,0,0,0,0,0,0,0,1,
scooby_state_4474f1|16|1 0,0,0,0,0,0,0,0,0,0,0,0,0,0,1,1,
scooby_state_44660f|28|28 1,0,0,0,0,0,0,0,0,0,0,0,0,0,0,1,
scooby_state_449703|42|33 1,0,0,0,0,0,0,0,0,0,0,0,0,0,0,1,
scooby_state_4496a9|0|-9 1,0,0,0,0,0,0,0,0,0,0,0,0,0,0,1,

scooby_action_0_deg_dist 0,8847,0,0,0,0,0,0,0,0,0,0,0,0,0,0,
scooby_action_12_deg_dist 0,5443,2419,0,5407,0,5526,0,0,0,0,0,0,0,0,0,
scooby_action_3_deg_dist 0,1625,0,0,0,0,0,0,0,0,0,0,0,0,0,0,
scooby_action_32_deg_dist 0,1166,0,0,0,0,0,0,0,0,0,0,0,0,0,0,
scooby_action_5_deg_dist 0,1411,1,0,0,0,0,0,0,0,0,0,0,0,0,0,
scooby_action_1_deg_dist 0,1293067,560531,0,418050,0,2982929,0,0,0,0,0,0,0,0,0,
scooby_action_30_deg_dist 0,21641,796,0,0,0,0,0,0,0,0,0,0,0,0,0,
scooby_action_4_deg_dist 0,6118,2573,0,6429,0,73138,0,0,0,0,0,0,0,0,0,
scooby_action_-3_deg_dist 0,1319,1,0,0,0,0,0,0,0,0,0,0,0,0,0,
scooby_action_10_deg_dist 0,1393,0,0,0,0,0,0,0,0,0,0,0,0,0,0,
scooby_action_-1_deg_dist 0,2567,0,0,0,0,0,0,0,0,0,0,0,0,0,0,
scooby_action_23_deg_dist 0,1361,0,0,0,0,0,0,0,0,0,0,0,0,0,0,
scooby_action_-6_deg_dist 0,1298,0,0,0,0,0,0,0,0,0,0,0,0,0,0,
scooby_action_11_deg_dist 0,5051,2207,0,5328,0,13329,0,0,0,0,0,0,0,0,0,
scooby_action_22_deg_dist 0,1238,0,0,0,0,0,0,0,0,0,0,0,0,0,0,

scooby_track_called 5432209
scooby_track_same_address 15482
scooby_track_evict 5416471

scooby_reward_demand_called 5432209
scooby_reward_demand_pt_not_found 1095576
scooby_reward_demand_pt_found 4336633
scooby_reward_demand_pt_found_total 4336633
scooby_reward_demand_has_reward 5683
scooby_reward_train_called 976331
scooby_reward_assign_reward_called 5416692
scooby_reward_no_pref 8847
scooby_reward_incorrect 967484
scooby_reward_correct_untimely 3354674
scooby_reward_correct_timely 976276
scooby_reward_out_of_bounds 109411
scooby_reward_tracker_hit 0

scooby_reward_none_low_bw 8847
scooby_reward_none_high_bw 0
scooby_reward_incorrect_low_bw 967484
scooby_reward_incorrect_high_bw 0
scooby_reward_correct_untimely_low_bw 3354674
scooby_reward_correct_untimely_high_bw 0
scooby_reward_correct_timely_low_bw 976276
scooby_reward_correct_timely_high_bw 0
scooby_reward_out_of_bounds_low_bw 109411
scooby_reward_out_of_bounds_high_bw 0
scooby_reward_tracker_hit_low_bw 0
scooby_reward_tracker_hit_high_bw 0

scooby_reward_1 0,945359,3273448,936875,85035,0,
scooby_reward_3 0,914,419,43,83,0,
scooby_reward_4 0,2730,70848,9106,5479,0,
scooby_reward_5 0,938,283,85,105,0,
scooby_reward_10 0,806,62,295,213,0,
scooby_reward_11 0,2326,6059,13121,4393,0,
scooby_reward_12 0,2687,2237,10283,3574,0,
scooby_reward_22 0,765,4,32,416,0,
scooby_reward_23 0,800,3,11,462,0,
scooby_reward_30 0,6837,266,6419,8904,0,
scooby_reward_32 0,586,8,4,568,0,
scooby_reward_-1 0,1030,1037,1,25,0,
scooby_reward_-3 0,867,0,1,55,0,
scooby_reward_-6 0,839,0,0,99,0,
scooby_reward_0 8847,0,0,0,0,0,

scooby_train_called 5416470
scooby_train_compute_reward 976331

scooby_register_fill_called 4892598
scooby_register_fill_set 1459314
scooby_register_fill_set_total 1459314

scooby_register_prefetch_hit_called 15940068
scooby_register_prefetch_hit_set 3847984
scooby_register_prefetch_hit_set_total 3847984

scooby_pref_issue_scooby 21070053

learning_engine_featurewise.action.called 5432209
learning_engine_featurewise.action.explore 9874
learning_engine_featurewise.action.exploit 5422335
learning_engine_featurewise.action.fallback 160051
learning_engine_featurewise.action.dyn_fallback_saved_bw 0
learning_engine_featurewise.action.dyn_fallback_saved_bw_acc 110938
learning_engine_featurewise.action.index_1_explored 678
learning_engine_featurewise.action.index_1_exploited 5253899
learning_engine_featurewise.action.index_3_explored 677
learning_engine_featurewise.action.index_3_exploited 948
learning_engine_featurewise.action.index_4_explored 664
learning_engine_featurewise.action.index_4_exploited 87594
learning_engine_featurewise.action.index_5_explored 626
learning_engine_featurewise.action.index_5_exploited 786
learning_engine_featurewise.action.index_10_explored 707
learning_engine_featurewise.action.index_10_exploited 686
learning_engine_featurewise.action.index_11_explored 669
learning_engine_featurewise.action.index_11_exploited 25246
learning_engine_featurewise.action.index_12_explored 687
learning_engine_featurewise.action.index_12_exploited 18108
learning_engine_featurewise.action.index_22_explored 656
learning_engine_featurewise.action.index_22_exploited 582
learning_engine_featurewise.action.index_23_explored 669
learning_engine_featurewise.action.index_23_exploited 692
learning_engine_featurewise.action.index_30_explored 644
learning_engine_featurewise.action.index_30_exploited 21793
learning_engine_featurewise.action.index_32_explored 607
learning_engine_featurewise.action.index_32_exploited 559
learning_engine_featurewise.action.index_-1_explored 659
learning_engine_featurewise.action.index_-1_exploited 1908
learning_engine_featurewise.action.index_-3_explored 644
learning_engine_featurewise.action.index_-3_exploited 676
learning_engine_featurewise.action.index_-6_explored 641
learning_engine_featurewise.action.index_-6_exploited 657
learning_engine_featurewise.action.index_0_explored 646
learning_engine_featurewise.action.index_0_exploited 8201
learning_engine_featurewise.learn.called 5416470
learning_engine_featurewise.learn.su_skip_PC 0
learning_engine_featurewise.learn.su_skip_PC_Delta 0

learning_engine_featurewise.q_value_histogram.bucket_0 0
learning_engine_featurewise.q_value_histogram.bucket_1 0
learning_engine_featurewise.q_value_histogram.bucket_2 166376
learning_engine_featurewise.q_value_histogram.bucket_3 5130
learning_engine_featurewise.q_value_histogram.bucket_4 9994
learning_engine_featurewise.q_value_histogram.bucket_5 71624
learning_engine_featurewise.q_value_histogram.bucket_6 5169211
learning_engine_featurewise.q_value_histogram.bucket_7 0

learning_engine_featurewise.consensus.total 5422335
learning_engine_featurewise.consensus.feature_align_PC 5357560
learning_engine_featurewise.consensus.feature_align_PC_ratio 0.99
learning_engine_featurewise.consensus.feature_align_PC_Delta 5335067
learning_engine_featurewise.consensus.feature_align_PC_Delta_ratio 0.98
learning_engine_featurewise.consensus.feature_align_all 5270292
learning_engine_featurewise.consensus.feature_align_all_ratio 0.97

learning_engine_featurewise.feature_PC_min_weight 1000000.00000000
learning_engine_featurewise.feature_PC_max_weight 0.00000000
learning_engine_featurewise.feature_PC_Delta_min_weight 1000000.00000000
learning_engine_featurewise.feature_PC_Delta_max_weight 0.00000000
unique_pcs 713
unique_pages 169020
unique_trigger_pcs 283
total_bitmaps_seen 0
unique_bitmaps_seen 0

scooby_bw_epochs 3323687
scooby_bw_level_0 1044023
scooby_bw_level_1 751520
scooby_bw_level_2 0
scooby_bw_level_3 1528144

scooby_ipc_epochs 0
scooby_ipc_level_0 0
scooby_ipc_level_1 0
scooby_ipc_level_2 0
scooby_ipc_level_3 0

scooby_cache_acc_epochs 817757
scooby_cache_acc_level_0 1299
scooby_cache_acc_level_1 9025
scooby_cache_acc_level_2 17500
scooby_cache_acc_level_3 26864
scooby_cache_acc_level_4 43018
scooby_cache_acc_level_5 67225
scooby_cache_acc_level_6 73529
scooby_cache_acc_level_7 78319
scooby_cache_acc_level_8 86191
scooby_cache_acc_level_9 414787

Channel_0_RQ_row_buffer_hit 1630233
Channel_0_RQ_row_buffer_miss 2068717
Channel_0_WQ_row_buffer_hit 842550
Channel_0_WQ_row_buffer_miss 1043880
Channel_0_WQ_full 0
Channel_0_dbus_congested 4757583

avg_congested_cycle 90

DRAM_bw_pochs 3323687
DRAM_bw_level_0 1044023
DRAM_bw_level_1 751520
DRAM_bw_level_2 0
DRAM_bw_level_3 1528144
