*************************************************
   ChampSim Multicore Out-of-Order Simulator
   Last compiled: Dec 11 2024 17:59:53
*************************************************
parsing config file: /home/functionmain/桌面/Pythia/config/nopref.ini

trace_0 /home/functionmain/桌面/Pythia/traces/459.GemsFDTD-1418B.champsimtrace.xz
adding L2C_PREFETCHER: NONE
Initialize SHIP state
warmup_instructions 100000000
simulation_instructions 500000000
champsim_seed 272
measure_ipc 0
measure_ipc_epoch 1000
measure_dram_bw 1
measure_dram_bw_epoch 256
measure_cache_acc 1
measure_cache_acc_epoch 1024
l1d_perfect 0
l2c_perfect 0
llc_perfect 0
l1d_semi_perfect 0
l2c_semi_perfect 0
llc_semi_perfect 0
semi_perfect_cache_page_buffer_size 64

num_cpus 1
cpu_freq 4000
dram_io_freq 300
page_size 4096
block_size 64
max_read_per_cycle 8
max_fill_per_cycle 1
dram_channels 1
log2_dram_channels 0
dram_ranks 1
dram_banks 8
dram_rows 65536
dram_columns 128
dram_row_size 8
dram_size 4096
dram_pages 1048576

fetch_width 6
decode_width 6
exec_width 4
lq_width 2
sq_width 2
retire_width 4
scheduler_size 128
branch_mispredict_penalty 20
rob_size 256
lq_size 72
sq_size 56
num_instr_destinations_sparc 4
num_instr_destinations 2
num_instr_sources 4

itlb_set 16
itlb_way 8
itlb_rq_size 16
itlb_wq_size 16
itlb_pq_size 0
itlb_mshr_size 8
itlb_latency 1

dtlb_set 16
dtlb_way 4
dtlb_rq_size 16
dtlb_wq_size 16
dtlb_pq_size 0
dtlb_mshr_size 8
dtlb_latency 1

stlb_set 128
stlb_way 12
stlb_rq_size 32
stlb_wq_size 32
stlb_pq_size 0
stlb_mshr_size 16
stlb_latency 8

l1i_size 32
l1i_set 64
l1i_way 8
l1i_rq_size 64
l1i_wq_size 64
l1i_pq_size 8
l1i_mshr_size 8
l1i_latency 1

l1d_size 32
l1d_set 64
l1d_way 8
l1d_rq_size 64
l1d_wq_size 64
l1d_pq_size 8
l1d_mshr_size 16
l1d_latency 4

l2c_size 256
l2c_set 512
l2c_way 8
l2c_rq_size 32
l2c_wq_size 32
l2c_pq_size 32
l2c_mshr_size 32
l2c_latency 10

llc_size 2048
llc_set 2048
llc_way 16
llc_rq_size 32
llc_wq_size 32
llc_pq_size 32
llc_mshr_size 64
llc_latency 20

dram_channel_width 8
dram_wq_size 64
dram_rq_size 64
tRP 15
tRCD 15
tCAS 12.5
dram_dbus_turn_around_time 30
dram_write_high_wm 56
dram_write_low_wm 48
min_dram_writes_per_switch 16
dram_mtps 300
dram_dbus_return_time 106


Heartbeat CPU  0 instructions:    1000001 cycles:     779178 heartbeat IPC: 1.28341 cumulative IPC: 1.28341 (Simulation time: 0 hr 0 min 2 sec) 
Heartbeat CPU  0 instructions:    2000002 cycles:    1558152 heartbeat IPC: 1.28374 cumulative IPC: 1.28357 (Simulation time: 0 hr 0 min 5 sec) 
Heartbeat CPU  0 instructions:    3000003 cycles:    2336864 heartbeat IPC: 1.28417 cumulative IPC: 1.28377 (Simulation time: 0 hr 0 min 7 sec) 
Heartbeat CPU  0 instructions:    4000000 cycles:    3116173 heartbeat IPC: 1.28318 cumulative IPC: 1.28363 (Simulation time: 0 hr 0 min 10 sec) 
Heartbeat CPU  0 instructions:    5000001 cycles:    3895522 heartbeat IPC: 1.28312 cumulative IPC: 1.28353 (Simulation time: 0 hr 0 min 12 sec) 
Heartbeat CPU  0 instructions:    6000002 cycles:    4674797 heartbeat IPC: 1.28325 cumulative IPC: 1.28348 (Simulation time: 0 hr 0 min 14 sec) 
Heartbeat CPU  0 instructions:    7000003 cycles:    5453801 heartbeat IPC: 1.28369 cumulative IPC: 1.28351 (Simulation time: 0 hr 0 min 17 sec) 
Heartbeat CPU  0 instructions:    8000000 cycles:    6232307 heartbeat IPC: 1.28451 cumulative IPC: 1.28363 (Simulation time: 0 hr 0 min 19 sec) 
Heartbeat CPU  0 instructions:    9000002 cycles:    7011306 heartbeat IPC: 1.28370 cumulative IPC: 1.28364 (Simulation time: 0 hr 0 min 22 sec) 
Heartbeat CPU  0 instructions:   10000003 cycles:    7790046 heartbeat IPC: 1.28413 cumulative IPC: 1.28369 (Simulation time: 0 hr 0 min 24 sec) 
Heartbeat CPU  0 instructions:   11000000 cycles:    8568829 heartbeat IPC: 1.28405 cumulative IPC: 1.28372 (Simulation time: 0 hr 0 min 27 sec) 
Heartbeat CPU  0 instructions:   12000000 cycles:    9347673 heartbeat IPC: 1.28395 cumulative IPC: 1.28374 (Simulation time: 0 hr 0 min 29 sec) 
Heartbeat CPU  0 instructions:   13000003 cycles:   10127050 heartbeat IPC: 1.28308 cumulative IPC: 1.28369 (Simulation time: 0 hr 0 min 31 sec) 
Heartbeat CPU  0 instructions:   14000000 cycles:   10906393 heartbeat IPC: 1.28313 cumulative IPC: 1.28365 (Simulation time: 0 hr 0 min 34 sec) 
Heartbeat CPU  0 instructions:   15000001 cycles:   11685358 heartbeat IPC: 1.28376 cumulative IPC: 1.28366 (Simulation time: 0 hr 0 min 36 sec) 
Heartbeat CPU  0 instructions:   16000000 cycles:   12464580 heartbeat IPC: 1.28333 cumulative IPC: 1.28364 (Simulation time: 0 hr 0 min 39 sec) 
Heartbeat CPU  0 instructions:   17000003 cycles:   13243309 heartbeat IPC: 1.28415 cumulative IPC: 1.28367 (Simulation time: 0 hr 0 min 41 sec) 
Heartbeat CPU  0 instructions:   18000000 cycles:   14021967 heartbeat IPC: 1.28426 cumulative IPC: 1.28370 (Simulation time: 0 hr 0 min 44 sec) 
Heartbeat CPU  0 instructions:   19000003 cycles:   14800981 heartbeat IPC: 1.28368 cumulative IPC: 1.28370 (Simulation time: 0 hr 0 min 46 sec) 
Heartbeat CPU  0 instructions:   20000000 cycles:   15579820 heartbeat IPC: 1.28396 cumulative IPC: 1.28371 (Simulation time: 0 hr 0 min 48 sec) 
Heartbeat CPU  0 instructions:   21000003 cycles:   16359308 heartbeat IPC: 1.28290 cumulative IPC: 1.28367 (Simulation time: 0 hr 0 min 51 sec) 
Heartbeat CPU  0 instructions:   22000002 cycles:   17138675 heartbeat IPC: 1.28309 cumulative IPC: 1.28365 (Simulation time: 0 hr 0 min 53 sec) 
Heartbeat CPU  0 instructions:   23000003 cycles:   17917848 heartbeat IPC: 1.28341 cumulative IPC: 1.28364 (Simulation time: 0 hr 0 min 56 sec) 
Heartbeat CPU  0 instructions:   24000000 cycles:   18697146 heartbeat IPC: 1.28320 cumulative IPC: 1.28362 (Simulation time: 0 hr 0 min 58 sec) 
Heartbeat CPU  0 instructions:   25000001 cycles:   19475633 heartbeat IPC: 1.28454 cumulative IPC: 1.28366 (Simulation time: 0 hr 1 min 1 sec) 
Heartbeat CPU  0 instructions:   26000001 cycles:   20254448 heartbeat IPC: 1.28400 cumulative IPC: 1.28367 (Simulation time: 0 hr 1 min 3 sec) 
Heartbeat CPU  0 instructions:   27000002 cycles:   21033337 heartbeat IPC: 1.28388 cumulative IPC: 1.28368 (Simulation time: 0 hr 1 min 5 sec) 
Heartbeat CPU  0 instructions:   28000000 cycles:   21812145 heartbeat IPC: 1.28401 cumulative IPC: 1.28369 (Simulation time: 0 hr 1 min 8 sec) 
Heartbeat CPU  0 instructions:   29000001 cycles:   22591260 heartbeat IPC: 1.28351 cumulative IPC: 1.28368 (Simulation time: 0 hr 1 min 10 sec) 
Heartbeat CPU  0 instructions:   30000002 cycles:   23370741 heartbeat IPC: 1.28291 cumulative IPC: 1.28366 (Simulation time: 0 hr 1 min 13 sec) 
Heartbeat CPU  0 instructions:   31000003 cycles:   24149910 heartbeat IPC: 1.28342 cumulative IPC: 1.28365 (Simulation time: 0 hr 1 min 15 sec) 
Heartbeat CPU  0 instructions:   32000000 cycles:   24928942 heartbeat IPC: 1.28364 cumulative IPC: 1.28365 (Simulation time: 0 hr 1 min 18 sec) 
Heartbeat CPU  0 instructions:   33000003 cycles:   25707713 heartbeat IPC: 1.28408 cumulative IPC: 1.28366 (Simulation time: 0 hr 1 min 20 sec) 
Heartbeat CPU  0 instructions:   34000002 cycles:   26477221 heartbeat IPC: 1.29953 cumulative IPC: 1.28412 (Simulation time: 0 hr 1 min 23 sec) 
Heartbeat CPU  0 instructions:   35000001 cycles:   27259372 heartbeat IPC: 1.27852 cumulative IPC: 1.28396 (Simulation time: 0 hr 1 min 25 sec) 
Heartbeat CPU  0 instructions:   36000000 cycles:   28039892 heartbeat IPC: 1.28120 cumulative IPC: 1.28389 (Simulation time: 0 hr 1 min 27 sec) 
Heartbeat CPU  0 instructions:   37000000 cycles:   28820404 heartbeat IPC: 1.28121 cumulative IPC: 1.28381 (Simulation time: 0 hr 1 min 30 sec) 
Heartbeat CPU  0 instructions:   38000001 cycles:   29600558 heartbeat IPC: 1.28180 cumulative IPC: 1.28376 (Simulation time: 0 hr 1 min 32 sec) 
Heartbeat CPU  0 instructions:   39000003 cycles:   30380984 heartbeat IPC: 1.28135 cumulative IPC: 1.28370 (Simulation time: 0 hr 1 min 35 sec) 
Heartbeat CPU  0 instructions:   40000000 cycles:   31161810 heartbeat IPC: 1.28069 cumulative IPC: 1.28362 (Simulation time: 0 hr 1 min 37 sec) 
Heartbeat CPU  0 instructions:   41000000 cycles:   31942621 heartbeat IPC: 1.28072 cumulative IPC: 1.28355 (Simulation time: 0 hr 1 min 40 sec) 
Heartbeat CPU  0 instructions:   42000002 cycles:   32722956 heartbeat IPC: 1.28150 cumulative IPC: 1.28350 (Simulation time: 0 hr 1 min 42 sec) 
Heartbeat CPU  0 instructions:   43000000 cycles:   33502940 heartbeat IPC: 1.28208 cumulative IPC: 1.28347 (Simulation time: 0 hr 1 min 45 sec) 
Heartbeat CPU  0 instructions:   44000000 cycles:   34282500 heartbeat IPC: 1.28277 cumulative IPC: 1.28345 (Simulation time: 0 hr 1 min 47 sec) 
Heartbeat CPU  0 instructions:   45000000 cycles:   35062153 heartbeat IPC: 1.28262 cumulative IPC: 1.28344 (Simulation time: 0 hr 1 min 50 sec) 
Heartbeat CPU  0 instructions:   46000002 cycles:   35841961 heartbeat IPC: 1.28237 cumulative IPC: 1.28341 (Simulation time: 0 hr 1 min 52 sec) 
Heartbeat CPU  0 instructions:   47000001 cycles:   36620836 heartbeat IPC: 1.28390 cumulative IPC: 1.28342 (Simulation time: 0 hr 1 min 54 sec) 
Heartbeat CPU  0 instructions:   48000000 cycles:   37400038 heartbeat IPC: 1.28336 cumulative IPC: 1.28342 (Simulation time: 0 hr 1 min 57 sec) 
Heartbeat CPU  0 instructions:   49000001 cycles:   38179936 heartbeat IPC: 1.28222 cumulative IPC: 1.28340 (Simulation time: 0 hr 1 min 59 sec) 
Heartbeat CPU  0 instructions:   50000002 cycles:   38959782 heartbeat IPC: 1.28231 cumulative IPC: 1.28337 (Simulation time: 0 hr 2 min 2 sec) 
Heartbeat CPU  0 instructions:   51000000 cycles:   39738662 heartbeat IPC: 1.28389 cumulative IPC: 1.28338 (Simulation time: 0 hr 2 min 4 sec) 
Heartbeat CPU  0 instructions:   52000000 cycles:   40517543 heartbeat IPC: 1.28389 cumulative IPC: 1.28339 (Simulation time: 0 hr 2 min 7 sec) 
Heartbeat CPU  0 instructions:   53000002 cycles:   41298351 heartbeat IPC: 1.28073 cumulative IPC: 1.28334 (Simulation time: 0 hr 2 min 9 sec) 
Heartbeat CPU  0 instructions:   54000000 cycles:   42078654 heartbeat IPC: 1.28155 cumulative IPC: 1.28331 (Simulation time: 0 hr 2 min 12 sec) 
Heartbeat CPU  0 instructions:   55000002 cycles:   42858429 heartbeat IPC: 1.28242 cumulative IPC: 1.28329 (Simulation time: 0 hr 2 min 14 sec) 
Heartbeat CPU  0 instructions:   56000000 cycles:   43638640 heartbeat IPC: 1.28170 cumulative IPC: 1.28327 (Simulation time: 0 hr 2 min 16 sec) 
Heartbeat CPU  0 instructions:   57000001 cycles:   44419667 heartbeat IPC: 1.28037 cumulative IPC: 1.28322 (Simulation time: 0 hr 2 min 19 sec) 
Heartbeat CPU  0 instructions:   58000000 cycles:   45200234 heartbeat IPC: 1.28112 cumulative IPC: 1.28318 (Simulation time: 0 hr 2 min 21 sec) 
Heartbeat CPU  0 instructions:   59000001 cycles:   45980479 heartbeat IPC: 1.28165 cumulative IPC: 1.28315 (Simulation time: 0 hr 2 min 24 sec) 
Heartbeat CPU  0 instructions:   60000000 cycles:   46760749 heartbeat IPC: 1.28161 cumulative IPC: 1.28313 (Simulation time: 0 hr 2 min 26 sec) 
Heartbeat CPU  0 instructions:   61000003 cycles:   47541752 heartbeat IPC: 1.28041 cumulative IPC: 1.28308 (Simulation time: 0 hr 2 min 29 sec) 
Heartbeat CPU  0 instructions:   62000002 cycles:   48321009 heartbeat IPC: 1.28327 cumulative IPC: 1.28309 (Simulation time: 0 hr 2 min 31 sec) 
Heartbeat CPU  0 instructions:   63000002 cycles:   49100415 heartbeat IPC: 1.28303 cumulative IPC: 1.28308 (Simulation time: 0 hr 2 min 34 sec) 
Heartbeat CPU  0 instructions:   64000000 cycles:   49879605 heartbeat IPC: 1.28338 cumulative IPC: 1.28309 (Simulation time: 0 hr 2 min 36 sec) 
Heartbeat CPU  0 instructions:   65000002 cycles:   50659307 heartbeat IPC: 1.28254 cumulative IPC: 1.28308 (Simulation time: 0 hr 2 min 39 sec) 
Heartbeat CPU  0 instructions:   66000001 cycles:   51438132 heartbeat IPC: 1.28398 cumulative IPC: 1.28309 (Simulation time: 0 hr 2 min 41 sec) 
Heartbeat CPU  0 instructions:   67000003 cycles:   52217193 heartbeat IPC: 1.28360 cumulative IPC: 1.28310 (Simulation time: 0 hr 2 min 43 sec) 
Heartbeat CPU  0 instructions:   68000000 cycles:   52997236 heartbeat IPC: 1.28198 cumulative IPC: 1.28309 (Simulation time: 0 hr 2 min 46 sec) 
Heartbeat CPU  0 instructions:   69000002 cycles:   53776824 heartbeat IPC: 1.28273 cumulative IPC: 1.28308 (Simulation time: 0 hr 2 min 48 sec) 
Heartbeat CPU  0 instructions:   70000001 cycles:   54556567 heartbeat IPC: 1.28247 cumulative IPC: 1.28307 (Simulation time: 0 hr 2 min 51 sec) 
Heartbeat CPU  0 instructions:   71000003 cycles:   55336405 heartbeat IPC: 1.28232 cumulative IPC: 1.28306 (Simulation time: 0 hr 2 min 53 sec) 
Heartbeat CPU  0 instructions:   72000000 cycles:   56116389 heartbeat IPC: 1.28207 cumulative IPC: 1.28305 (Simulation time: 0 hr 2 min 56 sec) 
Heartbeat CPU  0 instructions:   73000000 cycles:   56897634 heartbeat IPC: 1.28001 cumulative IPC: 1.28301 (Simulation time: 0 hr 2 min 58 sec) 
Heartbeat CPU  0 instructions:   74000002 cycles:   57677960 heartbeat IPC: 1.28152 cumulative IPC: 1.28299 (Simulation time: 0 hr 3 min 1 sec) 
Heartbeat CPU  0 instructions:   75000000 cycles:   58459195 heartbeat IPC: 1.28002 cumulative IPC: 1.28295 (Simulation time: 0 hr 3 min 3 sec) 
Heartbeat CPU  0 instructions:   76000000 cycles:   59239833 heartbeat IPC: 1.28100 cumulative IPC: 1.28292 (Simulation time: 0 hr 3 min 5 sec) 
Heartbeat CPU  0 instructions:   77000003 cycles:   60019766 heartbeat IPC: 1.28217 cumulative IPC: 1.28291 (Simulation time: 0 hr 3 min 8 sec) 
Heartbeat CPU  0 instructions:   78000001 cycles:   60799733 heartbeat IPC: 1.28210 cumulative IPC: 1.28290 (Simulation time: 0 hr 3 min 10 sec) 
Heartbeat CPU  0 instructions:   79000001 cycles:   61580951 heartbeat IPC: 1.28005 cumulative IPC: 1.28286 (Simulation time: 0 hr 3 min 13 sec) 
Heartbeat CPU  0 instructions:   80000000 cycles:   62361208 heartbeat IPC: 1.28163 cumulative IPC: 1.28285 (Simulation time: 0 hr 3 min 15 sec) 
Heartbeat CPU  0 instructions:   81000001 cycles:   63140312 heartbeat IPC: 1.28353 cumulative IPC: 1.28286 (Simulation time: 0 hr 3 min 18 sec) 
Heartbeat CPU  0 instructions:   82000002 cycles:   63918903 heartbeat IPC: 1.28437 cumulative IPC: 1.28288 (Simulation time: 0 hr 3 min 20 sec) 
Heartbeat CPU  0 instructions:   83000000 cycles:   64700270 heartbeat IPC: 1.27981 cumulative IPC: 1.28284 (Simulation time: 0 hr 3 min 23 sec) 
Heartbeat CPU  0 instructions:   84000000 cycles:   65479360 heartbeat IPC: 1.28355 cumulative IPC: 1.28285 (Simulation time: 0 hr 3 min 25 sec) 
Heartbeat CPU  0 instructions:   85000002 cycles:   66258227 heartbeat IPC: 1.28392 cumulative IPC: 1.28286 (Simulation time: 0 hr 3 min 27 sec) 
Heartbeat CPU  0 instructions:   86000001 cycles:   67037392 heartbeat IPC: 1.28342 cumulative IPC: 1.28287 (Simulation time: 0 hr 3 min 30 sec) 
Heartbeat CPU  0 instructions:   87000001 cycles:   67816634 heartbeat IPC: 1.28330 cumulative IPC: 1.28287 (Simulation time: 0 hr 3 min 32 sec) 
Heartbeat CPU  0 instructions:   88000000 cycles:   68595944 heartbeat IPC: 1.28319 cumulative IPC: 1.28287 (Simulation time: 0 hr 3 min 35 sec) 
Heartbeat CPU  0 instructions:   89000001 cycles:   69375906 heartbeat IPC: 1.28211 cumulative IPC: 1.28287 (Simulation time: 0 hr 3 min 37 sec) 
Heartbeat CPU  0 instructions:   90000003 cycles:   70155973 heartbeat IPC: 1.28194 cumulative IPC: 1.28286 (Simulation time: 0 hr 3 min 40 sec) 
Heartbeat CPU  0 instructions:   91000001 cycles:   70936038 heartbeat IPC: 1.28194 cumulative IPC: 1.28285 (Simulation time: 0 hr 3 min 42 sec) 
Heartbeat CPU  0 instructions:   92000000 cycles:   71716552 heartbeat IPC: 1.28121 cumulative IPC: 1.28283 (Simulation time: 0 hr 3 min 45 sec) 
Heartbeat CPU  0 instructions:   93000002 cycles:   72496775 heartbeat IPC: 1.28169 cumulative IPC: 1.28282 (Simulation time: 0 hr 3 min 47 sec) 
Heartbeat CPU  0 instructions:   94000000 cycles:   73277119 heartbeat IPC: 1.28148 cumulative IPC: 1.28280 (Simulation time: 0 hr 3 min 49 sec) 
Heartbeat CPU  0 instructions:   95000001 cycles:   74056952 heartbeat IPC: 1.28233 cumulative IPC: 1.28280 (Simulation time: 0 hr 3 min 52 sec) 
Heartbeat CPU  0 instructions:   96000000 cycles:   74837396 heartbeat IPC: 1.28132 cumulative IPC: 1.28278 (Simulation time: 0 hr 3 min 54 sec) 
Heartbeat CPU  0 instructions:   97000002 cycles:   75618610 heartbeat IPC: 1.28006 cumulative IPC: 1.28275 (Simulation time: 0 hr 3 min 57 sec) 
Heartbeat CPU  0 instructions:   98000001 cycles:   76398155 heartbeat IPC: 1.28280 cumulative IPC: 1.28275 (Simulation time: 0 hr 3 min 59 sec) 
Heartbeat CPU  0 instructions:   99000003 cycles:   77177032 heartbeat IPC: 1.28390 cumulative IPC: 1.28277 (Simulation time: 0 hr 4 min 2 sec) 
Heartbeat CPU  0 instructions:  100000000 cycles:   77955967 heartbeat IPC: 1.28380 cumulative IPC: 1.28278 (Simulation time: 0 hr 4 min 4 sec) 

Warmup complete CPU  0 instructions:  100000001 cycles:   77955968 (Simulation time: 0 hr 4 min 4 sec) 

Heartbeat CPU  0 instructions:  101000003 cycles:   80079415 heartbeat IPC: 0.47093 cumulative IPC: 0.47093 (Simulation time: 0 hr 4 min 7 sec) 
Heartbeat CPU  0 instructions:  102000000 cycles:   82212978 heartbeat IPC: 0.46870 cumulative IPC: 0.46981 (Simulation time: 0 hr 4 min 11 sec) 
Heartbeat CPU  0 instructions:  103000002 cycles:   84336252 heartbeat IPC: 0.47097 cumulative IPC: 0.47020 (Simulation time: 0 hr 4 min 14 sec) 
Heartbeat CPU  0 instructions:  104000000 cycles:   86437150 heartbeat IPC: 0.47599 cumulative IPC: 0.47163 (Simulation time: 0 hr 4 min 17 sec) 
Heartbeat CPU  0 instructions:  105000003 cycles:   88597882 heartbeat IPC: 0.46281 cumulative IPC: 0.46984 (Simulation time: 0 hr 4 min 21 sec) 
Heartbeat CPU  0 instructions:  106000002 cycles:   90708803 heartbeat IPC: 0.47373 cumulative IPC: 0.47048 (Simulation time: 0 hr 4 min 24 sec) 
Heartbeat CPU  0 instructions:  107000000 cycles:   92822312 heartbeat IPC: 0.47315 cumulative IPC: 0.47086 (Simulation time: 0 hr 4 min 27 sec) 
Heartbeat CPU  0 instructions:  108000000 cycles:   94955688 heartbeat IPC: 0.46874 cumulative IPC: 0.47060 (Simulation time: 0 hr 4 min 31 sec) 
Heartbeat CPU  0 instructions:  109000003 cycles:   97088222 heartbeat IPC: 0.46893 cumulative IPC: 0.47041 (Simulation time: 0 hr 4 min 34 sec) 
Heartbeat CPU  0 instructions:  110000003 cycles:   99212540 heartbeat IPC: 0.47074 cumulative IPC: 0.47044 (Simulation time: 0 hr 4 min 37 sec) 
Heartbeat CPU  0 instructions:  111000000 cycles:  101296014 heartbeat IPC: 0.47997 cumulative IPC: 0.47129 (Simulation time: 0 hr 4 min 41 sec) 
Heartbeat CPU  0 instructions:  112000000 cycles:  103405373 heartbeat IPC: 0.47408 cumulative IPC: 0.47152 (Simulation time: 0 hr 4 min 44 sec) 
Heartbeat CPU  0 instructions:  113000000 cycles:  105530739 heartbeat IPC: 0.47051 cumulative IPC: 0.47145 (Simulation time: 0 hr 4 min 47 sec) 
Heartbeat CPU  0 instructions:  114000000 cycles:  107638566 heartbeat IPC: 0.47442 cumulative IPC: 0.47166 (Simulation time: 0 hr 4 min 50 sec) 
Heartbeat CPU  0 instructions:  115000000 cycles:  109751174 heartbeat IPC: 0.47335 cumulative IPC: 0.47177 (Simulation time: 0 hr 4 min 54 sec) 
Heartbeat CPU  0 instructions:  116000000 cycles:  111866390 heartbeat IPC: 0.47276 cumulative IPC: 0.47183 (Simulation time: 0 hr 4 min 57 sec) 
Heartbeat CPU  0 instructions:  117000000 cycles:  113982277 heartbeat IPC: 0.47262 cumulative IPC: 0.47188 (Simulation time: 0 hr 5 min 0 sec) 
Heartbeat CPU  0 instructions:  118000003 cycles:  116079065 heartbeat IPC: 0.47692 cumulative IPC: 0.47215 (Simulation time: 0 hr 5 min 4 sec) 
Heartbeat CPU  0 instructions:  119000001 cycles:  118178009 heartbeat IPC: 0.47643 cumulative IPC: 0.47238 (Simulation time: 0 hr 5 min 7 sec) 
Heartbeat CPU  0 instructions:  120000000 cycles:  120305798 heartbeat IPC: 0.46997 cumulative IPC: 0.47226 (Simulation time: 0 hr 5 min 10 sec) 
Heartbeat CPU  0 instructions:  121000003 cycles:  122398651 heartbeat IPC: 0.47782 cumulative IPC: 0.47252 (Simulation time: 0 hr 5 min 14 sec) 
Heartbeat CPU  0 instructions:  122000002 cycles:  124510841 heartbeat IPC: 0.47344 cumulative IPC: 0.47256 (Simulation time: 0 hr 5 min 17 sec) 
Heartbeat CPU  0 instructions:  123000000 cycles:  126631088 heartbeat IPC: 0.47164 cumulative IPC: 0.47252 (Simulation time: 0 hr 5 min 20 sec) 
Heartbeat CPU  0 instructions:  124000000 cycles:  128773943 heartbeat IPC: 0.46667 cumulative IPC: 0.47227 (Simulation time: 0 hr 5 min 23 sec) 
Heartbeat CPU  0 instructions:  125000002 cycles:  130893773 heartbeat IPC: 0.47174 cumulative IPC: 0.47225 (Simulation time: 0 hr 5 min 27 sec) 
Heartbeat CPU  0 instructions:  126000000 cycles:  132995568 heartbeat IPC: 0.47578 cumulative IPC: 0.47239 (Simulation time: 0 hr 5 min 30 sec) 
Heartbeat CPU  0 instructions:  127000002 cycles:  135128456 heartbeat IPC: 0.46885 cumulative IPC: 0.47226 (Simulation time: 0 hr 5 min 33 sec) 
Heartbeat CPU  0 instructions:  128000000 cycles:  137246399 heartbeat IPC: 0.47216 cumulative IPC: 0.47225 (Simulation time: 0 hr 5 min 37 sec) 
Heartbeat CPU  0 instructions:  129000001 cycles:  139360966 heartbeat IPC: 0.47291 cumulative IPC: 0.47227 (Simulation time: 0 hr 5 min 40 sec) 
Heartbeat CPU  0 instructions:  130000003 cycles:  141513267 heartbeat IPC: 0.46462 cumulative IPC: 0.47202 (Simulation time: 0 hr 5 min 43 sec) 
Heartbeat CPU  0 instructions:  131000003 cycles:  143659295 heartbeat IPC: 0.46598 cumulative IPC: 0.47182 (Simulation time: 0 hr 5 min 47 sec) 
Heartbeat CPU  0 instructions:  132000000 cycles:  145765882 heartbeat IPC: 0.47470 cumulative IPC: 0.47191 (Simulation time: 0 hr 5 min 50 sec) 
Heartbeat CPU  0 instructions:  133000000 cycles:  147899756 heartbeat IPC: 0.46863 cumulative IPC: 0.47181 (Simulation time: 0 hr 5 min 53 sec) 
Heartbeat CPU  0 instructions:  134000002 cycles:  150407814 heartbeat IPC: 0.39872 cumulative IPC: 0.46928 (Simulation time: 0 hr 5 min 57 sec) 
Heartbeat CPU  0 instructions:  135000002 cycles:  152819356 heartbeat IPC: 0.41467 cumulative IPC: 0.46752 (Simulation time: 0 hr 6 min 0 sec) 
Heartbeat CPU  0 instructions:  136000000 cycles:  155206181 heartbeat IPC: 0.41897 cumulative IPC: 0.46602 (Simulation time: 0 hr 6 min 3 sec) 
Heartbeat CPU  0 instructions:  137000002 cycles:  157333083 heartbeat IPC: 0.47017 cumulative IPC: 0.46613 (Simulation time: 0 hr 6 min 7 sec) 
Heartbeat CPU  0 instructions:  138000003 cycles:  159412927 heartbeat IPC: 0.48081 cumulative IPC: 0.46650 (Simulation time: 0 hr 6 min 10 sec) 
Heartbeat CPU  0 instructions:  139000001 cycles:  161468185 heartbeat IPC: 0.48656 cumulative IPC: 0.46700 (Simulation time: 0 hr 6 min 13 sec) 
Heartbeat CPU  0 instructions:  140000000 cycles:  163446489 heartbeat IPC: 0.50548 cumulative IPC: 0.46789 (Simulation time: 0 hr 6 min 16 sec) 
Heartbeat CPU  0 instructions:  141000003 cycles:  165400575 heartbeat IPC: 0.51175 cumulative IPC: 0.46887 (Simulation time: 0 hr 6 min 18 sec) 
Heartbeat CPU  0 instructions:  142000003 cycles:  167365731 heartbeat IPC: 0.50887 cumulative IPC: 0.46975 (Simulation time: 0 hr 6 min 21 sec) 
Heartbeat CPU  0 instructions:  143000000 cycles:  169459002 heartbeat IPC: 0.47772 cumulative IPC: 0.46993 (Simulation time: 0 hr 6 min 25 sec) 
Heartbeat CPU  0 instructions:  144000000 cycles:  171553958 heartbeat IPC: 0.47734 cumulative IPC: 0.47010 (Simulation time: 0 hr 6 min 28 sec) 
Heartbeat CPU  0 instructions:  145000002 cycles:  173615574 heartbeat IPC: 0.48506 cumulative IPC: 0.47042 (Simulation time: 0 hr 6 min 31 sec) 
Heartbeat CPU  0 instructions:  146000000 cycles:  175696825 heartbeat IPC: 0.48048 cumulative IPC: 0.47063 (Simulation time: 0 hr 6 min 34 sec) 
Heartbeat CPU  0 instructions:  147000002 cycles:  177762541 heartbeat IPC: 0.48409 cumulative IPC: 0.47091 (Simulation time: 0 hr 6 min 38 sec) 
Heartbeat CPU  0 instructions:  148000000 cycles:  179745256 heartbeat IPC: 0.50436 cumulative IPC: 0.47156 (Simulation time: 0 hr 6 min 41 sec) 
Heartbeat CPU  0 instructions:  149000001 cycles:  181715454 heartbeat IPC: 0.50756 cumulative IPC: 0.47225 (Simulation time: 0 hr 6 min 44 sec) 
Heartbeat CPU  0 instructions:  150000003 cycles:  183718331 heartbeat IPC: 0.49928 cumulative IPC: 0.47276 (Simulation time: 0 hr 6 min 47 sec) 
Heartbeat CPU  0 instructions:  151000001 cycles:  185762656 heartbeat IPC: 0.48916 cumulative IPC: 0.47307 (Simulation time: 0 hr 6 min 51 sec) 
Heartbeat CPU  0 instructions:  152000000 cycles:  187863445 heartbeat IPC: 0.47601 cumulative IPC: 0.47313 (Simulation time: 0 hr 6 min 54 sec) 
Heartbeat CPU  0 instructions:  153000002 cycles:  189924543 heartbeat IPC: 0.48518 cumulative IPC: 0.47335 (Simulation time: 0 hr 6 min 57 sec) 
Heartbeat CPU  0 instructions:  154000000 cycles:  191998450 heartbeat IPC: 0.48218 cumulative IPC: 0.47351 (Simulation time: 0 hr 7 min 0 sec) 
Heartbeat CPU  0 instructions:  155000000 cycles:  193994285 heartbeat IPC: 0.50104 cumulative IPC: 0.47398 (Simulation time: 0 hr 7 min 4 sec) 
Heartbeat CPU  0 instructions:  156000000 cycles:  196011974 heartbeat IPC: 0.49562 cumulative IPC: 0.47435 (Simulation time: 0 hr 7 min 7 sec) 
Heartbeat CPU  0 instructions:  157000001 cycles:  198092981 heartbeat IPC: 0.48054 cumulative IPC: 0.47446 (Simulation time: 0 hr 7 min 10 sec) 
Heartbeat CPU  0 instructions:  158000003 cycles:  200200406 heartbeat IPC: 0.47451 cumulative IPC: 0.47446 (Simulation time: 0 hr 7 min 13 sec) 
Heartbeat CPU  0 instructions:  159000000 cycles:  202336446 heartbeat IPC: 0.46815 cumulative IPC: 0.47435 (Simulation time: 0 hr 7 min 17 sec) 
Heartbeat CPU  0 instructions:  160000000 cycles:  204437587 heartbeat IPC: 0.47593 cumulative IPC: 0.47438 (Simulation time: 0 hr 7 min 20 sec) 
Heartbeat CPU  0 instructions:  161000003 cycles:  206564766 heartbeat IPC: 0.47011 cumulative IPC: 0.47431 (Simulation time: 0 hr 7 min 23 sec) 
Heartbeat CPU  0 instructions:  162000003 cycles:  208687268 heartbeat IPC: 0.47114 cumulative IPC: 0.47426 (Simulation time: 0 hr 7 min 27 sec) 
Heartbeat CPU  0 instructions:  163000001 cycles:  210795352 heartbeat IPC: 0.47436 cumulative IPC: 0.47426 (Simulation time: 0 hr 7 min 30 sec) 
Heartbeat CPU  0 instructions:  164000000 cycles:  212918017 heartbeat IPC: 0.47111 cumulative IPC: 0.47421 (Simulation time: 0 hr 7 min 33 sec) 
Heartbeat CPU  0 instructions:  165000000 cycles:  215035972 heartbeat IPC: 0.47215 cumulative IPC: 0.47418 (Simulation time: 0 hr 7 min 37 sec) 
Heartbeat CPU  0 instructions:  166000000 cycles:  217157202 heartbeat IPC: 0.47142 cumulative IPC: 0.47413 (Simulation time: 0 hr 7 min 40 sec) 
Heartbeat CPU  0 instructions:  167000002 cycles:  219275586 heartbeat IPC: 0.47206 cumulative IPC: 0.47410 (Simulation time: 0 hr 7 min 43 sec) 
Heartbeat CPU  0 instructions:  168000000 cycles:  221384607 heartbeat IPC: 0.47415 cumulative IPC: 0.47410 (Simulation time: 0 hr 7 min 46 sec) 
Heartbeat CPU  0 instructions:  169000000 cycles:  223468854 heartbeat IPC: 0.47979 cumulative IPC: 0.47418 (Simulation time: 0 hr 7 min 50 sec) 
Heartbeat CPU  0 instructions:  170000003 cycles:  225618680 heartbeat IPC: 0.46516 cumulative IPC: 0.47405 (Simulation time: 0 hr 7 min 53 sec) 
Heartbeat CPU  0 instructions:  171000002 cycles:  227707116 heartbeat IPC: 0.47883 cumulative IPC: 0.47412 (Simulation time: 0 hr 7 min 56 sec) 
Heartbeat CPU  0 instructions:  172000000 cycles:  229825373 heartbeat IPC: 0.47209 cumulative IPC: 0.47409 (Simulation time: 0 hr 8 min 0 sec) 
Heartbeat CPU  0 instructions:  173000002 cycles:  231916159 heartbeat IPC: 0.47829 cumulative IPC: 0.47415 (Simulation time: 0 hr 8 min 3 sec) 
Heartbeat CPU  0 instructions:  174000000 cycles:  233991698 heartbeat IPC: 0.48180 cumulative IPC: 0.47425 (Simulation time: 0 hr 8 min 6 sec) 
Heartbeat CPU  0 instructions:  175000001 cycles:  236065640 heartbeat IPC: 0.48217 cumulative IPC: 0.47435 (Simulation time: 0 hr 8 min 10 sec) 
Heartbeat CPU  0 instructions:  176000000 cycles:  238127723 heartbeat IPC: 0.48495 cumulative IPC: 0.47449 (Simulation time: 0 hr 8 min 13 sec) 
Heartbeat CPU  0 instructions:  177000001 cycles:  240235150 heartbeat IPC: 0.47451 cumulative IPC: 0.47449 (Simulation time: 0 hr 8 min 16 sec) 
Heartbeat CPU  0 instructions:  178000000 cycles:  242337578 heartbeat IPC: 0.47564 cumulative IPC: 0.47451 (Simulation time: 0 hr 8 min 20 sec) 
Heartbeat CPU  0 instructions:  179000002 cycles:  244449294 heartbeat IPC: 0.47355 cumulative IPC: 0.47449 (Simulation time: 0 hr 8 min 23 sec) 
Heartbeat CPU  0 instructions:  180000000 cycles:  246542696 heartbeat IPC: 0.47769 cumulative IPC: 0.47453 (Simulation time: 0 hr 8 min 26 sec) 
Heartbeat CPU  0 instructions:  181000002 cycles:  248649486 heartbeat IPC: 0.47466 cumulative IPC: 0.47453 (Simulation time: 0 hr 8 min 29 sec) 
Heartbeat CPU  0 instructions:  182000003 cycles:  250739820 heartbeat IPC: 0.47839 cumulative IPC: 0.47458 (Simulation time: 0 hr 8 min 33 sec) 
Heartbeat CPU  0 instructions:  183000001 cycles:  252839525 heartbeat IPC: 0.47626 cumulative IPC: 0.47460 (Simulation time: 0 hr 8 min 36 sec) 
Heartbeat CPU  0 instructions:  184000000 cycles:  254960680 heartbeat IPC: 0.47144 cumulative IPC: 0.47456 (Simulation time: 0 hr 8 min 39 sec) 
Heartbeat CPU  0 instructions:  185000003 cycles:  257097661 heartbeat IPC: 0.46795 cumulative IPC: 0.47448 (Simulation time: 0 hr 8 min 43 sec) 
Heartbeat CPU  0 instructions:  186000000 cycles:  259190346 heartbeat IPC: 0.47785 cumulative IPC: 0.47452 (Simulation time: 0 hr 8 min 46 sec) 
Heartbeat CPU  0 instructions:  187000000 cycles:  261311150 heartbeat IPC: 0.47152 cumulative IPC: 0.47449 (Simulation time: 0 hr 8 min 49 sec) 
Heartbeat CPU  0 instructions:  188000000 cycles:  263439672 heartbeat IPC: 0.46981 cumulative IPC: 0.47444 (Simulation time: 0 hr 8 min 53 sec) 
Heartbeat CPU  0 instructions:  189000001 cycles:  265575999 heartbeat IPC: 0.46809 cumulative IPC: 0.47436 (Simulation time: 0 hr 8 min 56 sec) 
Heartbeat CPU  0 instructions:  190000003 cycles:  267683713 heartbeat IPC: 0.47445 cumulative IPC: 0.47436 (Simulation time: 0 hr 8 min 59 sec) 
Heartbeat CPU  0 instructions:  191000002 cycles:  269761888 heartbeat IPC: 0.48119 cumulative IPC: 0.47444 (Simulation time: 0 hr 9 min 3 sec) 
Heartbeat CPU  0 instructions:  192000000 cycles:  271904697 heartbeat IPC: 0.46668 cumulative IPC: 0.47435 (Simulation time: 0 hr 9 min 6 sec) 
Heartbeat CPU  0 instructions:  193000002 cycles:  274003408 heartbeat IPC: 0.47648 cumulative IPC: 0.47437 (Simulation time: 0 hr 9 min 9 sec) 
Heartbeat CPU  0 instructions:  194000003 cycles:  276118557 heartbeat IPC: 0.47278 cumulative IPC: 0.47436 (Simulation time: 0 hr 9 min 13 sec) 
Heartbeat CPU  0 instructions:  195000001 cycles:  278216678 heartbeat IPC: 0.47662 cumulative IPC: 0.47438 (Simulation time: 0 hr 9 min 16 sec) 
Heartbeat CPU  0 instructions:  196000000 cycles:  280321055 heartbeat IPC: 0.47520 cumulative IPC: 0.47439 (Simulation time: 0 hr 9 min 19 sec) 
Heartbeat CPU  0 instructions:  197000001 cycles:  282448983 heartbeat IPC: 0.46994 cumulative IPC: 0.47434 (Simulation time: 0 hr 9 min 23 sec) 
Heartbeat CPU  0 instructions:  198000000 cycles:  284542832 heartbeat IPC: 0.47759 cumulative IPC: 0.47438 (Simulation time: 0 hr 9 min 26 sec) 
Heartbeat CPU  0 instructions:  199000002 cycles:  286659639 heartbeat IPC: 0.47241 cumulative IPC: 0.47436 (Simulation time: 0 hr 9 min 29 sec) 
Heartbeat CPU  0 instructions:  200000000 cycles:  288770623 heartbeat IPC: 0.47371 cumulative IPC: 0.47435 (Simulation time: 0 hr 9 min 32 sec) 
Heartbeat CPU  0 instructions:  201000001 cycles:  290888738 heartbeat IPC: 0.47212 cumulative IPC: 0.47433 (Simulation time: 0 hr 9 min 36 sec) 
Heartbeat CPU  0 instructions:  202000003 cycles:  292961523 heartbeat IPC: 0.48244 cumulative IPC: 0.47441 (Simulation time: 0 hr 9 min 39 sec) 
Heartbeat CPU  0 instructions:  203000001 cycles:  295050905 heartbeat IPC: 0.47861 cumulative IPC: 0.47445 (Simulation time: 0 hr 9 min 42 sec) 
Heartbeat CPU  0 instructions:  204000000 cycles:  297135976 heartbeat IPC: 0.47960 cumulative IPC: 0.47450 (Simulation time: 0 hr 9 min 46 sec) 
Heartbeat CPU  0 instructions:  205000001 cycles:  299225264 heartbeat IPC: 0.47863 cumulative IPC: 0.47453 (Simulation time: 0 hr 9 min 49 sec) 
Heartbeat CPU  0 instructions:  206000000 cycles:  301328601 heartbeat IPC: 0.47543 cumulative IPC: 0.47454 (Simulation time: 0 hr 9 min 52 sec) 
Heartbeat CPU  0 instructions:  207000001 cycles:  303456212 heartbeat IPC: 0.47001 cumulative IPC: 0.47450 (Simulation time: 0 hr 9 min 56 sec) 
Heartbeat CPU  0 instructions:  208000000 cycles:  305557948 heartbeat IPC: 0.47580 cumulative IPC: 0.47451 (Simulation time: 0 hr 9 min 59 sec) 
Heartbeat CPU  0 instructions:  209000001 cycles:  307639597 heartbeat IPC: 0.48039 cumulative IPC: 0.47457 (Simulation time: 0 hr 10 min 2 sec) 
Heartbeat CPU  0 instructions:  210000000 cycles:  309755202 heartbeat IPC: 0.47268 cumulative IPC: 0.47455 (Simulation time: 0 hr 10 min 5 sec) 
Heartbeat CPU  0 instructions:  211000002 cycles:  311876416 heartbeat IPC: 0.47143 cumulative IPC: 0.47452 (Simulation time: 0 hr 10 min 9 sec) 
Heartbeat CPU  0 instructions:  212000000 cycles:  313966986 heartbeat IPC: 0.47834 cumulative IPC: 0.47455 (Simulation time: 0 hr 10 min 12 sec) 
Heartbeat CPU  0 instructions:  213000000 cycles:  316075914 heartbeat IPC: 0.47417 cumulative IPC: 0.47455 (Simulation time: 0 hr 10 min 15 sec) 
Heartbeat CPU  0 instructions:  214000003 cycles:  318209969 heartbeat IPC: 0.46859 cumulative IPC: 0.47450 (Simulation time: 0 hr 10 min 19 sec) 
Heartbeat CPU  0 instructions:  215000001 cycles:  320317185 heartbeat IPC: 0.47456 cumulative IPC: 0.47450 (Simulation time: 0 hr 10 min 22 sec) 
Heartbeat CPU  0 instructions:  216000000 cycles:  322421086 heartbeat IPC: 0.47531 cumulative IPC: 0.47451 (Simulation time: 0 hr 10 min 25 sec) 
Heartbeat CPU  0 instructions:  217000003 cycles:  324522133 heartbeat IPC: 0.47595 cumulative IPC: 0.47452 (Simulation time: 0 hr 10 min 29 sec) 
Heartbeat CPU  0 instructions:  218000002 cycles:  326668415 heartbeat IPC: 0.46592 cumulative IPC: 0.47444 (Simulation time: 0 hr 10 min 32 sec) 
Heartbeat CPU  0 instructions:  219000002 cycles:  328753103 heartbeat IPC: 0.47969 cumulative IPC: 0.47449 (Simulation time: 0 hr 10 min 35 sec) 
Heartbeat CPU  0 instructions:  220000000 cycles:  330856523 heartbeat IPC: 0.47542 cumulative IPC: 0.47449 (Simulation time: 0 hr 10 min 39 sec) 
Heartbeat CPU  0 instructions:  221000001 cycles:  332964122 heartbeat IPC: 0.47447 cumulative IPC: 0.47449 (Simulation time: 0 hr 10 min 42 sec) 
Heartbeat CPU  0 instructions:  222000003 cycles:  335073287 heartbeat IPC: 0.47412 cumulative IPC: 0.47449 (Simulation time: 0 hr 10 min 45 sec) 
Heartbeat CPU  0 instructions:  223000001 cycles:  337178863 heartbeat IPC: 0.47493 cumulative IPC: 0.47450 (Simulation time: 0 hr 10 min 49 sec) 
Heartbeat CPU  0 instructions:  224000000 cycles:  339299649 heartbeat IPC: 0.47152 cumulative IPC: 0.47447 (Simulation time: 0 hr 10 min 52 sec) 
Heartbeat CPU  0 instructions:  225000002 cycles:  341409052 heartbeat IPC: 0.47407 cumulative IPC: 0.47447 (Simulation time: 0 hr 10 min 55 sec) 
Heartbeat CPU  0 instructions:  226000000 cycles:  343516280 heartbeat IPC: 0.47456 cumulative IPC: 0.47447 (Simulation time: 0 hr 10 min 58 sec) 
Heartbeat CPU  0 instructions:  227000001 cycles:  345638602 heartbeat IPC: 0.47118 cumulative IPC: 0.47444 (Simulation time: 0 hr 11 min 2 sec) 
Heartbeat CPU  0 instructions:  228000000 cycles:  347741268 heartbeat IPC: 0.47559 cumulative IPC: 0.47445 (Simulation time: 0 hr 11 min 5 sec) 
Heartbeat CPU  0 instructions:  229000001 cycles:  349889961 heartbeat IPC: 0.46540 cumulative IPC: 0.47438 (Simulation time: 0 hr 11 min 8 sec) 
Heartbeat CPU  0 instructions:  230000002 cycles:  351992979 heartbeat IPC: 0.47551 cumulative IPC: 0.47439 (Simulation time: 0 hr 11 min 12 sec) 
Heartbeat CPU  0 instructions:  231000003 cycles:  354094573 heartbeat IPC: 0.47583 cumulative IPC: 0.47440 (Simulation time: 0 hr 11 min 15 sec) 
Heartbeat CPU  0 instructions:  232000000 cycles:  356221864 heartbeat IPC: 0.47008 cumulative IPC: 0.47437 (Simulation time: 0 hr 11 min 18 sec) 
Heartbeat CPU  0 instructions:  233000001 cycles:  358357358 heartbeat IPC: 0.46828 cumulative IPC: 0.47432 (Simulation time: 0 hr 11 min 22 sec) 
Heartbeat CPU  0 instructions:  234000003 cycles:  360469792 heartbeat IPC: 0.47339 cumulative IPC: 0.47431 (Simulation time: 0 hr 11 min 25 sec) 
Heartbeat CPU  0 instructions:  235000001 cycles:  362556237 heartbeat IPC: 0.47928 cumulative IPC: 0.47435 (Simulation time: 0 hr 11 min 28 sec) 
Heartbeat CPU  0 instructions:  236000000 cycles:  364666950 heartbeat IPC: 0.47377 cumulative IPC: 0.47435 (Simulation time: 0 hr 11 min 32 sec) 
Heartbeat CPU  0 instructions:  237000001 cycles:  366770546 heartbeat IPC: 0.47538 cumulative IPC: 0.47435 (Simulation time: 0 hr 11 min 35 sec) 
Heartbeat CPU  0 instructions:  238000002 cycles:  368860826 heartbeat IPC: 0.47841 cumulative IPC: 0.47438 (Simulation time: 0 hr 11 min 38 sec) 
Heartbeat CPU  0 instructions:  239000002 cycles:  370947928 heartbeat IPC: 0.47913 cumulative IPC: 0.47442 (Simulation time: 0 hr 11 min 41 sec) 
Heartbeat CPU  0 instructions:  240000000 cycles:  373085208 heartbeat IPC: 0.46788 cumulative IPC: 0.47437 (Simulation time: 0 hr 11 min 45 sec) 
Heartbeat CPU  0 instructions:  241000001 cycles:  375186995 heartbeat IPC: 0.47579 cumulative IPC: 0.47438 (Simulation time: 0 hr 11 min 48 sec) 
Heartbeat CPU  0 instructions:  242000000 cycles:  377294627 heartbeat IPC: 0.47447 cumulative IPC: 0.47438 (Simulation time: 0 hr 11 min 51 sec) 
Heartbeat CPU  0 instructions:  243000002 cycles:  379390513 heartbeat IPC: 0.47713 cumulative IPC: 0.47440 (Simulation time: 0 hr 11 min 55 sec) 
Heartbeat CPU  0 instructions:  244000000 cycles:  381523312 heartbeat IPC: 0.46887 cumulative IPC: 0.47436 (Simulation time: 0 hr 11 min 58 sec) 
Heartbeat CPU  0 instructions:  245000000 cycles:  383611505 heartbeat IPC: 0.47888 cumulative IPC: 0.47439 (Simulation time: 0 hr 12 min 1 sec) 
Heartbeat CPU  0 instructions:  246000003 cycles:  385734349 heartbeat IPC: 0.47107 cumulative IPC: 0.47437 (Simulation time: 0 hr 12 min 5 sec) 
Heartbeat CPU  0 instructions:  247000001 cycles:  387831509 heartbeat IPC: 0.47683 cumulative IPC: 0.47438 (Simulation time: 0 hr 12 min 8 sec) 
Heartbeat CPU  0 instructions:  248000000 cycles:  389913528 heartbeat IPC: 0.48030 cumulative IPC: 0.47442 (Simulation time: 0 hr 12 min 11 sec) 
Heartbeat CPU  0 instructions:  249000001 cycles:  392032058 heartbeat IPC: 0.47203 cumulative IPC: 0.47441 (Simulation time: 0 hr 12 min 14 sec) 
Heartbeat CPU  0 instructions:  250000001 cycles:  394140401 heartbeat IPC: 0.47431 cumulative IPC: 0.47441 (Simulation time: 0 hr 12 min 18 sec) 
Heartbeat CPU  0 instructions:  251000001 cycles:  398467314 heartbeat IPC: 0.23111 cumulative IPC: 0.47112 (Simulation time: 0 hr 12 min 22 sec) 
Heartbeat CPU  0 instructions:  252000000 cycles:  400189578 heartbeat IPC: 0.58063 cumulative IPC: 0.47171 (Simulation time: 0 hr 12 min 24 sec) 
Heartbeat CPU  0 instructions:  253000000 cycles:  401754818 heartbeat IPC: 0.63888 cumulative IPC: 0.47252 (Simulation time: 0 hr 12 min 27 sec) 
Heartbeat CPU  0 instructions:  254000003 cycles:  403216687 heartbeat IPC: 0.68406 cumulative IPC: 0.47347 (Simulation time: 0 hr 12 min 29 sec) 
Heartbeat CPU  0 instructions:  255000002 cycles:  404676172 heartbeat IPC: 0.68517 cumulative IPC: 0.47441 (Simulation time: 0 hr 12 min 31 sec) 
Heartbeat CPU  0 instructions:  256000000 cycles:  414588139 heartbeat IPC: 0.10089 cumulative IPC: 0.46341 (Simulation time: 0 hr 12 min 37 sec) 
Heartbeat CPU  0 instructions:  257000000 cycles:  416304820 heartbeat IPC: 0.58252 cumulative IPC: 0.46402 (Simulation time: 0 hr 12 min 40 sec) 
Heartbeat CPU  0 instructions:  258000001 cycles:  417859766 heartbeat IPC: 0.64311 cumulative IPC: 0.46484 (Simulation time: 0 hr 12 min 42 sec) 
Heartbeat CPU  0 instructions:  259000002 cycles:  419322816 heartbeat IPC: 0.68350 cumulative IPC: 0.46577 (Simulation time: 0 hr 12 min 45 sec) 
Heartbeat CPU  0 instructions:  260000000 cycles:  420784388 heartbeat IPC: 0.68419 cumulative IPC: 0.46671 (Simulation time: 0 hr 12 min 47 sec) 
Heartbeat CPU  0 instructions:  261000000 cycles:  429994115 heartbeat IPC: 0.10858 cumulative IPC: 0.45734 (Simulation time: 0 hr 12 min 53 sec) 
Heartbeat CPU  0 instructions:  262000003 cycles:  431714537 heartbeat IPC: 0.58125 cumulative IPC: 0.45794 (Simulation time: 0 hr 12 min 55 sec) 
Heartbeat CPU  0 instructions:  263000001 cycles:  433282341 heartbeat IPC: 0.63783 cumulative IPC: 0.45873 (Simulation time: 0 hr 12 min 58 sec) 
Heartbeat CPU  0 instructions:  264000000 cycles:  434746117 heartbeat IPC: 0.68316 cumulative IPC: 0.45965 (Simulation time: 0 hr 13 min 0 sec) 
Heartbeat CPU  0 instructions:  265000001 cycles:  436207350 heartbeat IPC: 0.68435 cumulative IPC: 0.46057 (Simulation time: 0 hr 13 min 2 sec) 
Heartbeat CPU  0 instructions:  266000001 cycles:  445414174 heartbeat IPC: 0.10862 cumulative IPC: 0.45175 (Simulation time: 0 hr 13 min 8 sec) 
Heartbeat CPU  0 instructions:  267000003 cycles:  447104195 heartbeat IPC: 0.59171 cumulative IPC: 0.45239 (Simulation time: 0 hr 13 min 10 sec) 
Heartbeat CPU  0 instructions:  268000000 cycles:  448673143 heartbeat IPC: 0.63737 cumulative IPC: 0.45318 (Simulation time: 0 hr 13 min 13 sec) 
Heartbeat CPU  0 instructions:  269000002 cycles:  450134227 heartbeat IPC: 0.68442 cumulative IPC: 0.45408 (Simulation time: 0 hr 13 min 15 sec) 
Heartbeat CPU  0 instructions:  270000003 cycles:  451593603 heartbeat IPC: 0.68523 cumulative IPC: 0.45499 (Simulation time: 0 hr 13 min 18 sec) 
Heartbeat CPU  0 instructions:  271000000 cycles:  461531458 heartbeat IPC: 0.10063 cumulative IPC: 0.44581 (Simulation time: 0 hr 13 min 23 sec) 
Heartbeat CPU  0 instructions:  272000000 cycles:  463227903 heartbeat IPC: 0.58947 cumulative IPC: 0.44644 (Simulation time: 0 hr 13 min 26 sec) 
Heartbeat CPU  0 instructions:  273000000 cycles:  464801520 heartbeat IPC: 0.63548 cumulative IPC: 0.44721 (Simulation time: 0 hr 13 min 28 sec) 
Heartbeat CPU  0 instructions:  274000001 cycles:  466263363 heartbeat IPC: 0.68407 cumulative IPC: 0.44810 (Simulation time: 0 hr 13 min 31 sec) 
Heartbeat CPU  0 instructions:  275000000 cycles:  467722467 heartbeat IPC: 0.68535 cumulative IPC: 0.44899 (Simulation time: 0 hr 13 min 33 sec) 
Heartbeat CPU  0 instructions:  276000000 cycles:  470427764 heartbeat IPC: 0.36965 cumulative IPC: 0.44844 (Simulation time: 0 hr 13 min 36 sec) 
Heartbeat CPU  0 instructions:  277000000 cycles:  472088253 heartbeat IPC: 0.60223 cumulative IPC: 0.44909 (Simulation time: 0 hr 13 min 38 sec) 
Heartbeat CPU  0 instructions:  278000000 cycles:  473660230 heartbeat IPC: 0.63614 cumulative IPC: 0.44983 (Simulation time: 0 hr 13 min 41 sec) 
Heartbeat CPU  0 instructions:  279000000 cycles:  475118122 heartbeat IPC: 0.68592 cumulative IPC: 0.45070 (Simulation time: 0 hr 13 min 43 sec) 
Heartbeat CPU  0 instructions:  280000000 cycles:  476574787 heartbeat IPC: 0.68650 cumulative IPC: 0.45156 (Simulation time: 0 hr 13 min 46 sec) 
Heartbeat CPU  0 instructions:  281000000 cycles:  479162324 heartbeat IPC: 0.38647 cumulative IPC: 0.45114 (Simulation time: 0 hr 13 min 48 sec) 
Heartbeat CPU  0 instructions:  282000000 cycles:  480829672 heartbeat IPC: 0.59975 cumulative IPC: 0.45175 (Simulation time: 0 hr 13 min 51 sec) 
Heartbeat CPU  0 instructions:  283000001 cycles:  482405028 heartbeat IPC: 0.63478 cumulative IPC: 0.45247 (Simulation time: 0 hr 13 min 53 sec) 
Heartbeat CPU  0 instructions:  284000000 cycles:  483861721 heartbeat IPC: 0.68649 cumulative IPC: 0.45331 (Simulation time: 0 hr 13 min 55 sec) 
Heartbeat CPU  0 instructions:  285000000 cycles:  485318538 heartbeat IPC: 0.68643 cumulative IPC: 0.45414 (Simulation time: 0 hr 13 min 58 sec) 
Heartbeat CPU  0 instructions:  286000002 cycles:  487724247 heartbeat IPC: 0.41568 cumulative IPC: 0.45392 (Simulation time: 0 hr 14 min 0 sec) 
Heartbeat CPU  0 instructions:  287000000 cycles:  489398292 heartbeat IPC: 0.59735 cumulative IPC: 0.45450 (Simulation time: 0 hr 14 min 3 sec) 
Heartbeat CPU  0 instructions:  288000000 cycles:  490964251 heartbeat IPC: 0.63859 cumulative IPC: 0.45520 (Simulation time: 0 hr 14 min 5 sec) 
Heartbeat CPU  0 instructions:  289000001 cycles:  492421919 heartbeat IPC: 0.68603 cumulative IPC: 0.45601 (Simulation time: 0 hr 14 min 8 sec) 
Heartbeat CPU  0 instructions:  290000001 cycles:  493879460 heartbeat IPC: 0.68609 cumulative IPC: 0.45681 (Simulation time: 0 hr 14 min 10 sec) 
Heartbeat CPU  0 instructions:  291000001 cycles:  496211904 heartbeat IPC: 0.42873 cumulative IPC: 0.45666 (Simulation time: 0 hr 14 min 12 sec) 
Heartbeat CPU  0 instructions:  292000000 cycles:  497848436 heartbeat IPC: 0.61105 cumulative IPC: 0.45726 (Simulation time: 0 hr 14 min 15 sec) 
Heartbeat CPU  0 instructions:  293000001 cycles:  499567087 heartbeat IPC: 0.58185 cumulative IPC: 0.45777 (Simulation time: 0 hr 14 min 17 sec) 
Heartbeat CPU  0 instructions:  294000003 cycles:  501285680 heartbeat IPC: 0.58187 cumulative IPC: 0.45827 (Simulation time: 0 hr 14 min 20 sec) 
Heartbeat CPU  0 instructions:  295000003 cycles:  503670891 heartbeat IPC: 0.41925 cumulative IPC: 0.45805 (Simulation time: 0 hr 14 min 23 sec) 
Heartbeat CPU  0 instructions:  296000000 cycles:  505336605 heartbeat IPC: 0.60034 cumulative IPC: 0.45861 (Simulation time: 0 hr 14 min 25 sec) 
Heartbeat CPU  0 instructions:  297000001 cycles:  507056990 heartbeat IPC: 0.58127 cumulative IPC: 0.45910 (Simulation time: 0 hr 14 min 28 sec) 
Heartbeat CPU  0 instructions:  298000002 cycles:  508777224 heartbeat IPC: 0.58132 cumulative IPC: 0.45959 (Simulation time: 0 hr 14 min 30 sec) 
Heartbeat CPU  0 instructions:  299000002 cycles:  510806220 heartbeat IPC: 0.49285 cumulative IPC: 0.45974 (Simulation time: 0 hr 14 min 33 sec) 
Heartbeat CPU  0 instructions:  300000000 cycles:  512667439 heartbeat IPC: 0.53728 cumulative IPC: 0.46008 (Simulation time: 0 hr 14 min 35 sec) 
Heartbeat CPU  0 instructions:  301000000 cycles:  514124041 heartbeat IPC: 0.68653 cumulative IPC: 0.46083 (Simulation time: 0 hr 14 min 37 sec) 
Heartbeat CPU  0 instructions:  302000001 cycles:  515580534 heartbeat IPC: 0.68658 cumulative IPC: 0.46158 (Simulation time: 0 hr 14 min 40 sec) 
Heartbeat CPU  0 instructions:  303000000 cycles:  517037112 heartbeat IPC: 0.68654 cumulative IPC: 0.46233 (Simulation time: 0 hr 14 min 42 sec) 
Heartbeat CPU  0 instructions:  304000000 cycles:  518493551 heartbeat IPC: 0.68661 cumulative IPC: 0.46307 (Simulation time: 0 hr 14 min 45 sec) 
Heartbeat CPU  0 instructions:  305000003 cycles:  520868961 heartbeat IPC: 0.42098 cumulative IPC: 0.46284 (Simulation time: 0 hr 14 min 47 sec) 
Heartbeat CPU  0 instructions:  306000001 cycles:  522219744 heartbeat IPC: 0.74031 cumulative IPC: 0.46369 (Simulation time: 0 hr 14 min 49 sec) 
Heartbeat CPU  0 instructions:  307000001 cycles:  523677042 heartbeat IPC: 0.68620 cumulative IPC: 0.46442 (Simulation time: 0 hr 14 min 52 sec) 
Heartbeat CPU  0 instructions:  308000000 cycles:  525134245 heartbeat IPC: 0.68625 cumulative IPC: 0.46514 (Simulation time: 0 hr 14 min 54 sec) 
Heartbeat CPU  0 instructions:  309000003 cycles:  526591579 heartbeat IPC: 0.68619 cumulative IPC: 0.46586 (Simulation time: 0 hr 14 min 56 sec) 
Heartbeat CPU  0 instructions:  310000002 cycles:  528546774 heartbeat IPC: 0.51146 cumulative IPC: 0.46605 (Simulation time: 0 hr 14 min 59 sec) 
Heartbeat CPU  0 instructions:  311000000 cycles:  533252769 heartbeat IPC: 0.21249 cumulative IPC: 0.46343 (Simulation time: 0 hr 15 min 3 sec) 
Heartbeat CPU  0 instructions:  312000000 cycles:  536399432 heartbeat IPC: 0.31780 cumulative IPC: 0.46243 (Simulation time: 0 hr 15 min 6 sec) 
Heartbeat CPU  0 instructions:  313000002 cycles:  539376441 heartbeat IPC: 0.33591 cumulative IPC: 0.46162 (Simulation time: 0 hr 15 min 10 sec) 
Heartbeat CPU  0 instructions:  314000002 cycles:  542335966 heartbeat IPC: 0.33789 cumulative IPC: 0.46083 (Simulation time: 0 hr 15 min 13 sec) 
Heartbeat CPU  0 instructions:  315000001 cycles:  545275495 heartbeat IPC: 0.34019 cumulative IPC: 0.46007 (Simulation time: 0 hr 15 min 16 sec) 
Heartbeat CPU  0 instructions:  316000000 cycles:  548232896 heartbeat IPC: 0.33813 cumulative IPC: 0.45930 (Simulation time: 0 hr 15 min 20 sec) 
Heartbeat CPU  0 instructions:  317000002 cycles:  551189594 heartbeat IPC: 0.33822 cumulative IPC: 0.45855 (Simulation time: 0 hr 15 min 23 sec) 
Heartbeat CPU  0 instructions:  318000001 cycles:  554135296 heartbeat IPC: 0.33948 cumulative IPC: 0.45781 (Simulation time: 0 hr 15 min 26 sec) 
Heartbeat CPU  0 instructions:  319000002 cycles:  557095907 heartbeat IPC: 0.33777 cumulative IPC: 0.45707 (Simulation time: 0 hr 15 min 30 sec) 
Heartbeat CPU  0 instructions:  320000000 cycles:  560041307 heartbeat IPC: 0.33951 cumulative IPC: 0.45635 (Simulation time: 0 hr 15 min 33 sec) 
Heartbeat CPU  0 instructions:  321000001 cycles:  562992913 heartbeat IPC: 0.33880 cumulative IPC: 0.45564 (Simulation time: 0 hr 15 min 36 sec) 
Heartbeat CPU  0 instructions:  322000000 cycles:  565941437 heartbeat IPC: 0.33915 cumulative IPC: 0.45493 (Simulation time: 0 hr 15 min 40 sec) 
Heartbeat CPU  0 instructions:  323000001 cycles:  569050853 heartbeat IPC: 0.32160 cumulative IPC: 0.45409 (Simulation time: 0 hr 15 min 43 sec) 
Heartbeat CPU  0 instructions:  324000000 cycles:  572039907 heartbeat IPC: 0.33455 cumulative IPC: 0.45336 (Simulation time: 0 hr 15 min 46 sec) 
Heartbeat CPU  0 instructions:  325000003 cycles:  575018363 heartbeat IPC: 0.33575 cumulative IPC: 0.45266 (Simulation time: 0 hr 15 min 50 sec) 
Heartbeat CPU  0 instructions:  326000000 cycles:  577970864 heartbeat IPC: 0.33869 cumulative IPC: 0.45199 (Simulation time: 0 hr 15 min 53 sec) 
Heartbeat CPU  0 instructions:  327000003 cycles:  580925375 heartbeat IPC: 0.33847 cumulative IPC: 0.45132 (Simulation time: 0 hr 15 min 56 sec) 
Heartbeat CPU  0 instructions:  328000000 cycles:  583897035 heartbeat IPC: 0.33651 cumulative IPC: 0.45065 (Simulation time: 0 hr 16 min 0 sec) 
Heartbeat CPU  0 instructions:  329000001 cycles:  586852870 heartbeat IPC: 0.33831 cumulative IPC: 0.44999 (Simulation time: 0 hr 16 min 3 sec) 
Heartbeat CPU  0 instructions:  330000000 cycles:  589807949 heartbeat IPC: 0.33840 cumulative IPC: 0.44935 (Simulation time: 0 hr 16 min 6 sec) 
Heartbeat CPU  0 instructions:  331000003 cycles:  592774115 heartbeat IPC: 0.33714 cumulative IPC: 0.44870 (Simulation time: 0 hr 16 min 10 sec) 
Heartbeat CPU  0 instructions:  332000000 cycles:  595728019 heartbeat IPC: 0.33853 cumulative IPC: 0.44807 (Simulation time: 0 hr 16 min 13 sec) 
Heartbeat CPU  0 instructions:  333000000 cycles:  598680157 heartbeat IPC: 0.33874 cumulative IPC: 0.44745 (Simulation time: 0 hr 16 min 16 sec) 
Heartbeat CPU  0 instructions:  334000001 cycles:  601638643 heartbeat IPC: 0.33801 cumulative IPC: 0.44684 (Simulation time: 0 hr 16 min 20 sec) 
Heartbeat CPU  0 instructions:  335000002 cycles:  604362442 heartbeat IPC: 0.36713 cumulative IPC: 0.44642 (Simulation time: 0 hr 16 min 23 sec) 
Heartbeat CPU  0 instructions:  336000000 cycles:  606155033 heartbeat IPC: 0.55785 cumulative IPC: 0.44680 (Simulation time: 0 hr 16 min 26 sec) 
Heartbeat CPU  0 instructions:  337000002 cycles:  607943966 heartbeat IPC: 0.55899 cumulative IPC: 0.44718 (Simulation time: 0 hr 16 min 29 sec) 
Heartbeat CPU  0 instructions:  338000002 cycles:  609715242 heartbeat IPC: 0.56456 cumulative IPC: 0.44757 (Simulation time: 0 hr 16 min 32 sec) 
Heartbeat CPU  0 instructions:  339000001 cycles:  611499869 heartbeat IPC: 0.56034 cumulative IPC: 0.44795 (Simulation time: 0 hr 16 min 34 sec) 
Heartbeat CPU  0 instructions:  340000000 cycles:  613266755 heartbeat IPC: 0.56597 cumulative IPC: 0.44834 (Simulation time: 0 hr 16 min 37 sec) 
Heartbeat CPU  0 instructions:  341000002 cycles:  615021697 heartbeat IPC: 0.56982 cumulative IPC: 0.44873 (Simulation time: 0 hr 16 min 40 sec) 
Heartbeat CPU  0 instructions:  342000001 cycles:  616778060 heartbeat IPC: 0.56936 cumulative IPC: 0.44913 (Simulation time: 0 hr 16 min 43 sec) 
Heartbeat CPU  0 instructions:  343000003 cycles:  618568668 heartbeat IPC: 0.55847 cumulative IPC: 0.44949 (Simulation time: 0 hr 16 min 46 sec) 
Heartbeat CPU  0 instructions:  344000000 cycles:  620375866 heartbeat IPC: 0.55334 cumulative IPC: 0.44984 (Simulation time: 0 hr 16 min 49 sec) 
Heartbeat CPU  0 instructions:  345000001 cycles:  622152111 heartbeat IPC: 0.56299 cumulative IPC: 0.45021 (Simulation time: 0 hr 16 min 52 sec) 
Heartbeat CPU  0 instructions:  346000002 cycles:  623976250 heartbeat IPC: 0.54820 cumulative IPC: 0.45053 (Simulation time: 0 hr 16 min 55 sec) 
Heartbeat CPU  0 instructions:  347000000 cycles:  626001534 heartbeat IPC: 0.49376 cumulative IPC: 0.45069 (Simulation time: 0 hr 16 min 58 sec) 
Heartbeat CPU  0 instructions:  348000000 cycles:  627761952 heartbeat IPC: 0.56805 cumulative IPC: 0.45107 (Simulation time: 0 hr 17 min 1 sec) 
Heartbeat CPU  0 instructions:  349000001 cycles:  629512465 heartbeat IPC: 0.57126 cumulative IPC: 0.45145 (Simulation time: 0 hr 17 min 3 sec) 
Heartbeat CPU  0 instructions:  350000001 cycles:  631294783 heartbeat IPC: 0.56107 cumulative IPC: 0.45180 (Simulation time: 0 hr 17 min 6 sec) 
Heartbeat CPU  0 instructions:  351000002 cycles:  633077771 heartbeat IPC: 0.56086 cumulative IPC: 0.45215 (Simulation time: 0 hr 17 min 9 sec) 
Heartbeat CPU  0 instructions:  352000000 cycles:  634902593 heartbeat IPC: 0.54800 cumulative IPC: 0.45247 (Simulation time: 0 hr 17 min 12 sec) 
Heartbeat CPU  0 instructions:  353000002 cycles:  636719903 heartbeat IPC: 0.55026 cumulative IPC: 0.45279 (Simulation time: 0 hr 17 min 15 sec) 
Heartbeat CPU  0 instructions:  354000000 cycles:  638537782 heartbeat IPC: 0.55009 cumulative IPC: 0.45310 (Simulation time: 0 hr 17 min 18 sec) 
Heartbeat CPU  0 instructions:  355000003 cycles:  640317739 heartbeat IPC: 0.56181 cumulative IPC: 0.45344 (Simulation time: 0 hr 17 min 21 sec) 
Heartbeat CPU  0 instructions:  356000000 cycles:  642131236 heartbeat IPC: 0.55142 cumulative IPC: 0.45376 (Simulation time: 0 hr 17 min 24 sec) 
Heartbeat CPU  0 instructions:  357000001 cycles:  643935528 heartbeat IPC: 0.55423 cumulative IPC: 0.45408 (Simulation time: 0 hr 17 min 27 sec) 
Heartbeat CPU  0 instructions:  358000003 cycles:  645754848 heartbeat IPC: 0.54966 cumulative IPC: 0.45439 (Simulation time: 0 hr 17 min 30 sec) 
Heartbeat CPU  0 instructions:  359000000 cycles:  647505288 heartbeat IPC: 0.57128 cumulative IPC: 0.45475 (Simulation time: 0 hr 17 min 33 sec) 
Heartbeat CPU  0 instructions:  360000000 cycles:  649168196 heartbeat IPC: 0.60136 cumulative IPC: 0.45517 (Simulation time: 0 hr 17 min 35 sec) 
Heartbeat CPU  0 instructions:  361000000 cycles:  650630818 heartbeat IPC: 0.68370 cumulative IPC: 0.45576 (Simulation time: 0 hr 17 min 38 sec) 
Heartbeat CPU  0 instructions:  362000002 cycles:  652098308 heartbeat IPC: 0.68144 cumulative IPC: 0.45633 (Simulation time: 0 hr 17 min 41 sec) 
Heartbeat CPU  0 instructions:  363000002 cycles:  653565635 heartbeat IPC: 0.68151 cumulative IPC: 0.45691 (Simulation time: 0 hr 17 min 44 sec) 
Heartbeat CPU  0 instructions:  364000000 cycles:  655034469 heartbeat IPC: 0.68081 cumulative IPC: 0.45748 (Simulation time: 0 hr 17 min 47 sec) 
Heartbeat CPU  0 instructions:  365000002 cycles:  656496270 heartbeat IPC: 0.68409 cumulative IPC: 0.45805 (Simulation time: 0 hr 17 min 49 sec) 
Heartbeat CPU  0 instructions:  366000002 cycles:  657962569 heartbeat IPC: 0.68199 cumulative IPC: 0.45862 (Simulation time: 0 hr 17 min 52 sec) 
Heartbeat CPU  0 instructions:  367000001 cycles:  659425543 heartbeat IPC: 0.68354 cumulative IPC: 0.45918 (Simulation time: 0 hr 17 min 55 sec) 
Heartbeat CPU  0 instructions:  368000000 cycles:  660889776 heartbeat IPC: 0.68295 cumulative IPC: 0.45974 (Simulation time: 0 hr 17 min 58 sec) 
Heartbeat CPU  0 instructions:  369000000 cycles:  662355038 heartbeat IPC: 0.68247 cumulative IPC: 0.46030 (Simulation time: 0 hr 18 min 1 sec) 
Heartbeat CPU  0 instructions:  370000003 cycles:  663824292 heartbeat IPC: 0.68062 cumulative IPC: 0.46085 (Simulation time: 0 hr 18 min 3 sec) 
Heartbeat CPU  0 instructions:  371000001 cycles:  665301403 heartbeat IPC: 0.67700 cumulative IPC: 0.46140 (Simulation time: 0 hr 18 min 6 sec) 
Heartbeat CPU  0 instructions:  372000000 cycles:  666783101 heartbeat IPC: 0.67490 cumulative IPC: 0.46194 (Simulation time: 0 hr 18 min 9 sec) 
Heartbeat CPU  0 instructions:  373000000 cycles:  668266906 heartbeat IPC: 0.67394 cumulative IPC: 0.46247 (Simulation time: 0 hr 18 min 12 sec) 
Heartbeat CPU  0 instructions:  374000000 cycles:  669751515 heartbeat IPC: 0.67358 cumulative IPC: 0.46300 (Simulation time: 0 hr 18 min 15 sec) 
Heartbeat CPU  0 instructions:  375000001 cycles:  671422056 heartbeat IPC: 0.59861 cumulative IPC: 0.46338 (Simulation time: 0 hr 18 min 17 sec) 
Heartbeat CPU  0 instructions:  376000000 cycles:  672863926 heartbeat IPC: 0.69354 cumulative IPC: 0.46394 (Simulation time: 0 hr 18 min 20 sec) 
Heartbeat CPU  0 instructions:  377000001 cycles:  674305597 heartbeat IPC: 0.69364 cumulative IPC: 0.46449 (Simulation time: 0 hr 18 min 23 sec) 
Heartbeat CPU  0 instructions:  378000003 cycles:  675745176 heartbeat IPC: 0.69465 cumulative IPC: 0.46505 (Simulation time: 0 hr 18 min 26 sec) 
Heartbeat CPU  0 instructions:  379000000 cycles:  677189139 heartbeat IPC: 0.69254 cumulative IPC: 0.46560 (Simulation time: 0 hr 18 min 29 sec) 
Heartbeat CPU  0 instructions:  380000000 cycles:  678626538 heartbeat IPC: 0.69570 cumulative IPC: 0.46615 (Simulation time: 0 hr 18 min 31 sec) 
Heartbeat CPU  0 instructions:  381000003 cycles:  680063333 heartbeat IPC: 0.69600 cumulative IPC: 0.46669 (Simulation time: 0 hr 18 min 34 sec) 
Heartbeat CPU  0 instructions:  382000003 cycles:  681496059 heartbeat IPC: 0.69797 cumulative IPC: 0.46724 (Simulation time: 0 hr 18 min 37 sec) 
Heartbeat CPU  0 instructions:  383000003 cycles:  682932997 heartbeat IPC: 0.69592 cumulative IPC: 0.46779 (Simulation time: 0 hr 18 min 40 sec) 
Heartbeat CPU  0 instructions:  384000000 cycles:  684368147 heartbeat IPC: 0.69679 cumulative IPC: 0.46833 (Simulation time: 0 hr 18 min 42 sec) 
Heartbeat CPU  0 instructions:  385000003 cycles:  685805937 heartbeat IPC: 0.69551 cumulative IPC: 0.46887 (Simulation time: 0 hr 18 min 45 sec) 
Heartbeat CPU  0 instructions:  386000001 cycles:  687250416 heartbeat IPC: 0.69229 cumulative IPC: 0.46940 (Simulation time: 0 hr 18 min 48 sec) 
Heartbeat CPU  0 instructions:  387000003 cycles:  688700047 heartbeat IPC: 0.68983 cumulative IPC: 0.46992 (Simulation time: 0 hr 18 min 51 sec) 
Heartbeat CPU  0 instructions:  388000000 cycles:  690170779 heartbeat IPC: 0.67993 cumulative IPC: 0.47042 (Simulation time: 0 hr 18 min 54 sec) 
Heartbeat CPU  0 instructions:  389000003 cycles:  691640530 heartbeat IPC: 0.68039 cumulative IPC: 0.47093 (Simulation time: 0 hr 18 min 56 sec) 
Heartbeat CPU  0 instructions:  390000000 cycles:  693751847 heartbeat IPC: 0.47364 cumulative IPC: 0.47094 (Simulation time: 0 hr 18 min 59 sec) 
Heartbeat CPU  0 instructions:  391000000 cycles:  696698108 heartbeat IPC: 0.33941 cumulative IPC: 0.47031 (Simulation time: 0 hr 19 min 3 sec) 
Heartbeat CPU  0 instructions:  392000000 cycles:  699629320 heartbeat IPC: 0.34116 cumulative IPC: 0.46970 (Simulation time: 0 hr 19 min 6 sec) 
Heartbeat CPU  0 instructions:  393000003 cycles:  702553916 heartbeat IPC: 0.34193 cumulative IPC: 0.46910 (Simulation time: 0 hr 19 min 9 sec) 
Heartbeat CPU  0 instructions:  394000002 cycles:  705506687 heartbeat IPC: 0.33866 cumulative IPC: 0.46849 (Simulation time: 0 hr 19 min 13 sec) 
Heartbeat CPU  0 instructions:  395000002 cycles:  708428301 heartbeat IPC: 0.34228 cumulative IPC: 0.46790 (Simulation time: 0 hr 19 min 16 sec) 
Heartbeat CPU  0 instructions:  396000000 cycles:  711366884 heartbeat IPC: 0.34030 cumulative IPC: 0.46731 (Simulation time: 0 hr 19 min 19 sec) 
Heartbeat CPU  0 instructions:  397000002 cycles:  714294144 heartbeat IPC: 0.34162 cumulative IPC: 0.46673 (Simulation time: 0 hr 19 min 23 sec) 
Heartbeat CPU  0 instructions:  398000001 cycles:  717224501 heartbeat IPC: 0.34126 cumulative IPC: 0.46616 (Simulation time: 0 hr 19 min 26 sec) 
Heartbeat CPU  0 instructions:  399000001 cycles:  720168538 heartbeat IPC: 0.33967 cumulative IPC: 0.46558 (Simulation time: 0 hr 19 min 29 sec) 
Heartbeat CPU  0 instructions:  400000000 cycles:  723103225 heartbeat IPC: 0.34075 cumulative IPC: 0.46501 (Simulation time: 0 hr 19 min 33 sec) 
Heartbeat CPU  0 instructions:  401000001 cycles:  726046399 heartbeat IPC: 0.33977 cumulative IPC: 0.46444 (Simulation time: 0 hr 19 min 36 sec) 
Heartbeat CPU  0 instructions:  402000000 cycles:  729118756 heartbeat IPC: 0.32548 cumulative IPC: 0.46379 (Simulation time: 0 hr 19 min 39 sec) 
Heartbeat CPU  0 instructions:  403000000 cycles:  732060836 heartbeat IPC: 0.33990 cumulative IPC: 0.46323 (Simulation time: 0 hr 19 min 43 sec) 
Heartbeat CPU  0 instructions:  404000000 cycles:  735000188 heartbeat IPC: 0.34021 cumulative IPC: 0.46268 (Simulation time: 0 hr 19 min 46 sec) 
Heartbeat CPU  0 instructions:  405000000 cycles:  737940492 heartbeat IPC: 0.34010 cumulative IPC: 0.46213 (Simulation time: 0 hr 19 min 49 sec) 
Heartbeat CPU  0 instructions:  406000000 cycles:  740872529 heartbeat IPC: 0.34106 cumulative IPC: 0.46160 (Simulation time: 0 hr 19 min 53 sec) 
Heartbeat CPU  0 instructions:  407000002 cycles:  743820160 heartbeat IPC: 0.33926 cumulative IPC: 0.46105 (Simulation time: 0 hr 19 min 56 sec) 
Heartbeat CPU  0 instructions:  408000000 cycles:  746769318 heartbeat IPC: 0.33908 cumulative IPC: 0.46052 (Simulation time: 0 hr 19 min 59 sec) 
Heartbeat CPU  0 instructions:  409000002 cycles:  749697110 heartbeat IPC: 0.34155 cumulative IPC: 0.46000 (Simulation time: 0 hr 20 min 3 sec) 
Heartbeat CPU  0 instructions:  410000003 cycles:  752643230 heartbeat IPC: 0.33943 cumulative IPC: 0.45947 (Simulation time: 0 hr 20 min 6 sec) 
Heartbeat CPU  0 instructions:  411000001 cycles:  755577548 heartbeat IPC: 0.34079 cumulative IPC: 0.45896 (Simulation time: 0 hr 20 min 9 sec) 
Heartbeat CPU  0 instructions:  412000000 cycles:  758497659 heartbeat IPC: 0.34245 cumulative IPC: 0.45846 (Simulation time: 0 hr 20 min 13 sec) 
Heartbeat CPU  0 instructions:  413000002 cycles:  761434456 heartbeat IPC: 0.34051 cumulative IPC: 0.45795 (Simulation time: 0 hr 20 min 16 sec) 
Heartbeat CPU  0 instructions:  414000001 cycles:  764403190 heartbeat IPC: 0.33684 cumulative IPC: 0.45743 (Simulation time: 0 hr 20 min 19 sec) 
Heartbeat CPU  0 instructions:  415000000 cycles:  766076359 heartbeat IPC: 0.59767 cumulative IPC: 0.45777 (Simulation time: 0 hr 20 min 22 sec) 
Heartbeat CPU  0 instructions:  416000000 cycles:  767737340 heartbeat IPC: 0.60205 cumulative IPC: 0.45812 (Simulation time: 0 hr 20 min 25 sec) 
Heartbeat CPU  0 instructions:  417000003 cycles:  769396385 heartbeat IPC: 0.60276 cumulative IPC: 0.45846 (Simulation time: 0 hr 20 min 28 sec) 
Heartbeat CPU  0 instructions:  418000000 cycles:  771043765 heartbeat IPC: 0.60702 cumulative IPC: 0.45882 (Simulation time: 0 hr 20 min 31 sec) 
Heartbeat CPU  0 instructions:  419000002 cycles:  772727586 heartbeat IPC: 0.59389 cumulative IPC: 0.45914 (Simulation time: 0 hr 20 min 33 sec) 
Heartbeat CPU  0 instructions:  420000000 cycles:  774405013 heartbeat IPC: 0.59615 cumulative IPC: 0.45947 (Simulation time: 0 hr 20 min 36 sec) 
Heartbeat CPU  0 instructions:  421000000 cycles:  776059217 heartbeat IPC: 0.60452 cumulative IPC: 0.45982 (Simulation time: 0 hr 20 min 39 sec) 
Heartbeat CPU  0 instructions:  422000001 cycles:  777731649 heartbeat IPC: 0.59793 cumulative IPC: 0.46015 (Simulation time: 0 hr 20 min 42 sec) 
Heartbeat CPU  0 instructions:  423000003 cycles:  779409264 heartbeat IPC: 0.59609 cumulative IPC: 0.46047 (Simulation time: 0 hr 20 min 45 sec) 
Heartbeat CPU  0 instructions:  424000000 cycles:  781076327 heartbeat IPC: 0.59986 cumulative IPC: 0.46080 (Simulation time: 0 hr 20 min 48 sec) 
Heartbeat CPU  0 instructions:  425000003 cycles:  782747068 heartbeat IPC: 0.59854 cumulative IPC: 0.46113 (Simulation time: 0 hr 20 min 51 sec) 
Heartbeat CPU  0 instructions:  426000002 cycles:  784437855 heartbeat IPC: 0.59144 cumulative IPC: 0.46144 (Simulation time: 0 hr 20 min 53 sec) 
Heartbeat CPU  0 instructions:  427000003 cycles:  786355026 heartbeat IPC: 0.52160 cumulative IPC: 0.46160 (Simulation time: 0 hr 20 min 56 sec) 
Heartbeat CPU  0 instructions:  428000000 cycles:  788027053 heartbeat IPC: 0.59807 cumulative IPC: 0.46193 (Simulation time: 0 hr 20 min 59 sec) 
Heartbeat CPU  0 instructions:  429000001 cycles:  789679897 heartbeat IPC: 0.60502 cumulative IPC: 0.46226 (Simulation time: 0 hr 21 min 2 sec) 
Heartbeat CPU  0 instructions:  430000003 cycles:  791353911 heartbeat IPC: 0.59737 cumulative IPC: 0.46257 (Simulation time: 0 hr 21 min 5 sec) 
Heartbeat CPU  0 instructions:  431000001 cycles:  792980943 heartbeat IPC: 0.61461 cumulative IPC: 0.46292 (Simulation time: 0 hr 21 min 8 sec) 
Heartbeat CPU  0 instructions:  432000000 cycles:  794662394 heartbeat IPC: 0.59472 cumulative IPC: 0.46323 (Simulation time: 0 hr 21 min 11 sec) 
Heartbeat CPU  0 instructions:  433000001 cycles:  796312532 heartbeat IPC: 0.60601 cumulative IPC: 0.46356 (Simulation time: 0 hr 21 min 14 sec) 
Heartbeat CPU  0 instructions:  434000001 cycles:  797985725 heartbeat IPC: 0.59766 cumulative IPC: 0.46387 (Simulation time: 0 hr 21 min 17 sec) 
Heartbeat CPU  0 instructions:  435000000 cycles:  799625982 heartbeat IPC: 0.60966 cumulative IPC: 0.46420 (Simulation time: 0 hr 21 min 20 sec) 
Heartbeat CPU  0 instructions:  436000000 cycles:  801315958 heartbeat IPC: 0.59172 cumulative IPC: 0.46450 (Simulation time: 0 hr 21 min 22 sec) 
Heartbeat CPU  0 instructions:  437000000 cycles:  802978600 heartbeat IPC: 0.60145 cumulative IPC: 0.46481 (Simulation time: 0 hr 21 min 25 sec) 
Heartbeat CPU  0 instructions:  438000000 cycles:  804684588 heartbeat IPC: 0.58617 cumulative IPC: 0.46510 (Simulation time: 0 hr 21 min 28 sec) 
Heartbeat CPU  0 instructions:  439000002 cycles:  806436943 heartbeat IPC: 0.57066 cumulative IPC: 0.46535 (Simulation time: 0 hr 21 min 31 sec) 
Heartbeat CPU  0 instructions:  440000000 cycles:  807921667 heartbeat IPC: 0.67352 cumulative IPC: 0.46578 (Simulation time: 0 hr 21 min 34 sec) 
Heartbeat CPU  0 instructions:  441000001 cycles:  809397976 heartbeat IPC: 0.67737 cumulative IPC: 0.46620 (Simulation time: 0 hr 21 min 37 sec) 
Heartbeat CPU  0 instructions:  442000001 cycles:  810870862 heartbeat IPC: 0.67894 cumulative IPC: 0.46663 (Simulation time: 0 hr 21 min 40 sec) 
Heartbeat CPU  0 instructions:  443000000 cycles:  812344097 heartbeat IPC: 0.67878 cumulative IPC: 0.46706 (Simulation time: 0 hr 21 min 43 sec) 
Heartbeat CPU  0 instructions:  444000000 cycles:  813818213 heartbeat IPC: 0.67837 cumulative IPC: 0.46748 (Simulation time: 0 hr 21 min 45 sec) 
Heartbeat CPU  0 instructions:  445000000 cycles:  815293617 heartbeat IPC: 0.67778 cumulative IPC: 0.46790 (Simulation time: 0 hr 21 min 48 sec) 
Heartbeat CPU  0 instructions:  446000002 cycles:  816772601 heartbeat IPC: 0.67614 cumulative IPC: 0.46832 (Simulation time: 0 hr 21 min 51 sec) 
Heartbeat CPU  0 instructions:  447000000 cycles:  818248394 heartbeat IPC: 0.67760 cumulative IPC: 0.46873 (Simulation time: 0 hr 21 min 54 sec) 
Heartbeat CPU  0 instructions:  448000000 cycles:  819725342 heartbeat IPC: 0.67707 cumulative IPC: 0.46915 (Simulation time: 0 hr 21 min 57 sec) 
Heartbeat CPU  0 instructions:  449000003 cycles:  821206257 heartbeat IPC: 0.67526 cumulative IPC: 0.46956 (Simulation time: 0 hr 21 min 59 sec) 
Heartbeat CPU  0 instructions:  450000003 cycles:  822700154 heartbeat IPC: 0.66939 cumulative IPC: 0.46996 (Simulation time: 0 hr 22 min 2 sec) 
Heartbeat CPU  0 instructions:  451000003 cycles:  824182377 heartbeat IPC: 0.67466 cumulative IPC: 0.47037 (Simulation time: 0 hr 22 min 5 sec) 
Heartbeat CPU  0 instructions:  452000000 cycles:  825675776 heartbeat IPC: 0.66961 cumulative IPC: 0.47076 (Simulation time: 0 hr 22 min 9 sec) 
Heartbeat CPU  0 instructions:  453000003 cycles:  827180969 heartbeat IPC: 0.66437 cumulative IPC: 0.47115 (Simulation time: 0 hr 22 min 12 sec) 
Heartbeat CPU  0 instructions:  454000001 cycles:  828913242 heartbeat IPC: 0.57728 cumulative IPC: 0.47140 (Simulation time: 0 hr 22 min 15 sec) 
Heartbeat CPU  0 instructions:  455000003 cycles:  830405371 heartbeat IPC: 0.67018 cumulative IPC: 0.47179 (Simulation time: 0 hr 22 min 18 sec) 
Heartbeat CPU  0 instructions:  456000000 cycles:  831876107 heartbeat IPC: 0.67993 cumulative IPC: 0.47220 (Simulation time: 0 hr 22 min 22 sec) 
Heartbeat CPU  0 instructions:  457000001 cycles:  833350837 heartbeat IPC: 0.67809 cumulative IPC: 0.47260 (Simulation time: 0 hr 22 min 26 sec) 
Heartbeat CPU  0 instructions:  458000003 cycles:  834815949 heartbeat IPC: 0.68254 cumulative IPC: 0.47301 (Simulation time: 0 hr 22 min 29 sec) 
Heartbeat CPU  0 instructions:  459000001 cycles:  836277542 heartbeat IPC: 0.68418 cumulative IPC: 0.47341 (Simulation time: 0 hr 22 min 32 sec) 
Heartbeat CPU  0 instructions:  460000000 cycles:  837743461 heartbeat IPC: 0.68217 cumulative IPC: 0.47382 (Simulation time: 0 hr 22 min 35 sec) 
Heartbeat CPU  0 instructions:  461000003 cycles:  839208624 heartbeat IPC: 0.68252 cumulative IPC: 0.47422 (Simulation time: 0 hr 22 min 38 sec) 
Heartbeat CPU  0 instructions:  462000001 cycles:  840684761 heartbeat IPC: 0.67744 cumulative IPC: 0.47461 (Simulation time: 0 hr 22 min 41 sec) 
Heartbeat CPU  0 instructions:  463000000 cycles:  842165292 heartbeat IPC: 0.67543 cumulative IPC: 0.47500 (Simulation time: 0 hr 22 min 44 sec) 
Heartbeat CPU  0 instructions:  464000000 cycles:  843643940 heartbeat IPC: 0.67629 cumulative IPC: 0.47539 (Simulation time: 0 hr 22 min 47 sec) 
Heartbeat CPU  0 instructions:  465000001 cycles:  845126746 heartbeat IPC: 0.67440 cumulative IPC: 0.47577 (Simulation time: 0 hr 22 min 51 sec) 
Heartbeat CPU  0 instructions:  466000003 cycles:  846621961 heartbeat IPC: 0.66880 cumulative IPC: 0.47615 (Simulation time: 0 hr 22 min 55 sec) 
Heartbeat CPU  0 instructions:  467000003 cycles:  848112929 heartbeat IPC: 0.67071 cumulative IPC: 0.47653 (Simulation time: 0 hr 22 min 58 sec) 
Heartbeat CPU  0 instructions:  468000000 cycles:  849623509 heartbeat IPC: 0.66200 cumulative IPC: 0.47689 (Simulation time: 0 hr 23 min 1 sec) 
Heartbeat CPU  0 instructions:  469000002 cycles:  851364012 heartbeat IPC: 0.57455 cumulative IPC: 0.47711 (Simulation time: 0 hr 23 min 4 sec) 
Heartbeat CPU  0 instructions:  470000000 cycles:  854344014 heartbeat IPC: 0.33557 cumulative IPC: 0.47657 (Simulation time: 0 hr 23 min 8 sec) 
Heartbeat CPU  0 instructions:  471000001 cycles:  857231130 heartbeat IPC: 0.34637 cumulative IPC: 0.47608 (Simulation time: 0 hr 23 min 12 sec) 
Heartbeat CPU  0 instructions:  472000000 cycles:  860112872 heartbeat IPC: 0.34701 cumulative IPC: 0.47561 (Simulation time: 0 hr 23 min 15 sec) 
Heartbeat CPU  0 instructions:  473000001 cycles:  862996398 heartbeat IPC: 0.34680 cumulative IPC: 0.47513 (Simulation time: 0 hr 23 min 19 sec) 
Heartbeat CPU  0 instructions:  474000003 cycles:  865896363 heartbeat IPC: 0.34483 cumulative IPC: 0.47466 (Simulation time: 0 hr 23 min 23 sec) 
Heartbeat CPU  0 instructions:  475000002 cycles:  868785838 heartbeat IPC: 0.34608 cumulative IPC: 0.47419 (Simulation time: 0 hr 23 min 27 sec) 
Heartbeat CPU  0 instructions:  476000000 cycles:  871687919 heartbeat IPC: 0.34458 cumulative IPC: 0.47371 (Simulation time: 0 hr 23 min 30 sec) 
Heartbeat CPU  0 instructions:  477000003 cycles:  874564284 heartbeat IPC: 0.34766 cumulative IPC: 0.47326 (Simulation time: 0 hr 23 min 34 sec) 
Heartbeat CPU  0 instructions:  478000002 cycles:  877456626 heartbeat IPC: 0.34574 cumulative IPC: 0.47280 (Simulation time: 0 hr 23 min 38 sec) 
Heartbeat CPU  0 instructions:  479000001 cycles:  880358841 heartbeat IPC: 0.34456 cumulative IPC: 0.47233 (Simulation time: 0 hr 23 min 41 sec) 
Heartbeat CPU  0 instructions:  480000000 cycles:  883273383 heartbeat IPC: 0.34311 cumulative IPC: 0.47186 (Simulation time: 0 hr 23 min 45 sec) 
Heartbeat CPU  0 instructions:  481000001 cycles:  886246530 heartbeat IPC: 0.33634 cumulative IPC: 0.47137 (Simulation time: 0 hr 23 min 49 sec) 
Heartbeat CPU  0 instructions:  482000000 cycles:  889271740 heartbeat IPC: 0.33056 cumulative IPC: 0.47084 (Simulation time: 0 hr 23 min 52 sec) 
Heartbeat CPU  0 instructions:  483000001 cycles:  892182968 heartbeat IPC: 0.34350 cumulative IPC: 0.47038 (Simulation time: 0 hr 23 min 56 sec) 
Heartbeat CPU  0 instructions:  484000000 cycles:  895096651 heartbeat IPC: 0.34321 cumulative IPC: 0.46993 (Simulation time: 0 hr 24 min 0 sec) 
Heartbeat CPU  0 instructions:  485000001 cycles:  898014589 heartbeat IPC: 0.34271 cumulative IPC: 0.46948 (Simulation time: 0 hr 24 min 3 sec) 
Heartbeat CPU  0 instructions:  486000002 cycles:  900928578 heartbeat IPC: 0.34317 cumulative IPC: 0.46903 (Simulation time: 0 hr 24 min 7 sec) 
Heartbeat CPU  0 instructions:  487000003 cycles:  903844829 heartbeat IPC: 0.34291 cumulative IPC: 0.46859 (Simulation time: 0 hr 24 min 11 sec) 
Heartbeat CPU  0 instructions:  488000000 cycles:  906752918 heartbeat IPC: 0.34387 cumulative IPC: 0.46815 (Simulation time: 0 hr 24 min 14 sec) 
Heartbeat CPU  0 instructions:  489000002 cycles:  909666261 heartbeat IPC: 0.34325 cumulative IPC: 0.46771 (Simulation time: 0 hr 24 min 18 sec) 
Heartbeat CPU  0 instructions:  490000003 cycles:  912577354 heartbeat IPC: 0.34351 cumulative IPC: 0.46728 (Simulation time: 0 hr 24 min 22 sec) 
Heartbeat CPU  0 instructions:  491000003 cycles:  915487928 heartbeat IPC: 0.34357 cumulative IPC: 0.46685 (Simulation time: 0 hr 24 min 26 sec) 
Heartbeat CPU  0 instructions:  492000000 cycles:  918399270 heartbeat IPC: 0.34348 cumulative IPC: 0.46642 (Simulation time: 0 hr 24 min 30 sec) 
Heartbeat CPU  0 instructions:  493000002 cycles:  921289742 heartbeat IPC: 0.34596 cumulative IPC: 0.46601 (Simulation time: 0 hr 24 min 33 sec) 
Heartbeat CPU  0 instructions:  494000002 cycles:  923320950 heartbeat IPC: 0.49232 cumulative IPC: 0.46607 (Simulation time: 0 hr 24 min 37 sec) 
Heartbeat CPU  0 instructions:  495000003 cycles:  925013914 heartbeat IPC: 0.59068 cumulative IPC: 0.46632 (Simulation time: 0 hr 24 min 40 sec) 
Heartbeat CPU  0 instructions:  496000000 cycles:  926702379 heartbeat IPC: 0.59225 cumulative IPC: 0.46657 (Simulation time: 0 hr 24 min 43 sec) 
Heartbeat CPU  0 instructions:  497000002 cycles:  928384658 heartbeat IPC: 0.59443 cumulative IPC: 0.46682 (Simulation time: 0 hr 24 min 46 sec) 
Heartbeat CPU  0 instructions:  498000002 cycles:  930062112 heartbeat IPC: 0.59614 cumulative IPC: 0.46708 (Simulation time: 0 hr 24 min 49 sec) 
Heartbeat CPU  0 instructions:  499000002 cycles:  931732110 heartbeat IPC: 0.59880 cumulative IPC: 0.46734 (Simulation time: 0 hr 24 min 52 sec) 
Heartbeat CPU  0 instructions:  500000000 cycles:  933393464 heartbeat IPC: 0.60192 cumulative IPC: 0.46760 (Simulation time: 0 hr 24 min 55 sec) 
Heartbeat CPU  0 instructions:  501000000 cycles:  935038845 heartbeat IPC: 0.60776 cumulative IPC: 0.46787 (Simulation time: 0 hr 24 min 58 sec) 
Heartbeat CPU  0 instructions:  502000001 cycles:  936726131 heartbeat IPC: 0.59267 cumulative IPC: 0.46811 (Simulation time: 0 hr 25 min 1 sec) 
Heartbeat CPU  0 instructions:  503000001 cycles:  938421261 heartbeat IPC: 0.58993 cumulative IPC: 0.46835 (Simulation time: 0 hr 25 min 4 sec) 
Heartbeat CPU  0 instructions:  504000000 cycles:  940107563 heartbeat IPC: 0.59301 cumulative IPC: 0.46860 (Simulation time: 0 hr 25 min 7 sec) 
Heartbeat CPU  0 instructions:  505000000 cycles:  941835883 heartbeat IPC: 0.57860 cumulative IPC: 0.46882 (Simulation time: 0 hr 25 min 10 sec) 
Heartbeat CPU  0 instructions:  506000001 cycles:  943815351 heartbeat IPC: 0.50519 cumulative IPC: 0.46890 (Simulation time: 0 hr 25 min 13 sec) 
Heartbeat CPU  0 instructions:  507000002 cycles:  945475916 heartbeat IPC: 0.60221 cumulative IPC: 0.46915 (Simulation time: 0 hr 25 min 16 sec) 
Heartbeat CPU  0 instructions:  508000000 cycles:  947159641 heartbeat IPC: 0.59392 cumulative IPC: 0.46940 (Simulation time: 0 hr 25 min 19 sec) 
Heartbeat CPU  0 instructions:  509000000 cycles:  948847210 heartbeat IPC: 0.59257 cumulative IPC: 0.46963 (Simulation time: 0 hr 25 min 23 sec) 
Heartbeat CPU  0 instructions:  510000001 cycles:  950560992 heartbeat IPC: 0.58351 cumulative IPC: 0.46986 (Simulation time: 0 hr 25 min 26 sec) 
Heartbeat CPU  0 instructions:  511000002 cycles:  952248099 heartbeat IPC: 0.59273 cumulative IPC: 0.47009 (Simulation time: 0 hr 25 min 29 sec) 
Heartbeat CPU  0 instructions:  512000000 cycles:  953952265 heartbeat IPC: 0.58680 cumulative IPC: 0.47032 (Simulation time: 0 hr 25 min 32 sec) 
Heartbeat CPU  0 instructions:  513000002 cycles:  955636407 heartbeat IPC: 0.59378 cumulative IPC: 0.47056 (Simulation time: 0 hr 25 min 35 sec) 
Heartbeat CPU  0 instructions:  514000001 cycles:  957302938 heartbeat IPC: 0.60005 cumulative IPC: 0.47080 (Simulation time: 0 hr 25 min 38 sec) 
Heartbeat CPU  0 instructions:  515000000 cycles:  958988580 heartbeat IPC: 0.59325 cumulative IPC: 0.47104 (Simulation time: 0 hr 25 min 41 sec) 
Heartbeat CPU  0 instructions:  516000000 cycles:  960694846 heartbeat IPC: 0.58608 cumulative IPC: 0.47126 (Simulation time: 0 hr 25 min 44 sec) 
Heartbeat CPU  0 instructions:  517000001 cycles:  962416344 heartbeat IPC: 0.58089 cumulative IPC: 0.47147 (Simulation time: 0 hr 25 min 47 sec) 
Heartbeat CPU  0 instructions:  518000001 cycles:  964200074 heartbeat IPC: 0.56062 cumulative IPC: 0.47165 (Simulation time: 0 hr 25 min 50 sec) 
Heartbeat CPU  0 instructions:  519000000 cycles:  965678170 heartbeat IPC: 0.67655 cumulative IPC: 0.47199 (Simulation time: 0 hr 25 min 53 sec) 
Heartbeat CPU  0 instructions:  520000000 cycles:  967146068 heartbeat IPC: 0.68125 cumulative IPC: 0.47234 (Simulation time: 0 hr 25 min 56 sec) 
Heartbeat CPU  0 instructions:  521000000 cycles:  968613219 heartbeat IPC: 0.68159 cumulative IPC: 0.47268 (Simulation time: 0 hr 25 min 59 sec) 
Heartbeat CPU  0 instructions:  522000002 cycles:  970080763 heartbeat IPC: 0.68141 cumulative IPC: 0.47303 (Simulation time: 0 hr 26 min 2 sec) 
Heartbeat CPU  0 instructions:  523000001 cycles:  971549111 heartbeat IPC: 0.68104 cumulative IPC: 0.47337 (Simulation time: 0 hr 26 min 5 sec) 
Heartbeat CPU  0 instructions:  524000000 cycles:  973016440 heartbeat IPC: 0.68151 cumulative IPC: 0.47371 (Simulation time: 0 hr 26 min 8 sec) 
Heartbeat CPU  0 instructions:  525000002 cycles:  974487750 heartbeat IPC: 0.67967 cumulative IPC: 0.47405 (Simulation time: 0 hr 26 min 11 sec) 
Heartbeat CPU  0 instructions:  526000000 cycles:  975955552 heartbeat IPC: 0.68129 cumulative IPC: 0.47439 (Simulation time: 0 hr 26 min 14 sec) 
Heartbeat CPU  0 instructions:  527000001 cycles:  977426246 heartbeat IPC: 0.67995 cumulative IPC: 0.47472 (Simulation time: 0 hr 26 min 17 sec) 
Heartbeat CPU  0 instructions:  528000000 cycles:  978896816 heartbeat IPC: 0.68001 cumulative IPC: 0.47506 (Simulation time: 0 hr 26 min 20 sec) 
Heartbeat CPU  0 instructions:  529000001 cycles:  980371078 heartbeat IPC: 0.67831 cumulative IPC: 0.47539 (Simulation time: 0 hr 26 min 23 sec) 
Heartbeat CPU  0 instructions:  530000001 cycles:  981844524 heartbeat IPC: 0.67868 cumulative IPC: 0.47572 (Simulation time: 0 hr 26 min 26 sec) 
Heartbeat CPU  0 instructions:  531000003 cycles:  983332214 heartbeat IPC: 0.67218 cumulative IPC: 0.47605 (Simulation time: 0 hr 26 min 29 sec) 
Heartbeat CPU  0 instructions:  532000000 cycles:  984821024 heartbeat IPC: 0.67168 cumulative IPC: 0.47637 (Simulation time: 0 hr 26 min 32 sec) 
Heartbeat CPU  0 instructions:  533000003 cycles:  986525813 heartbeat IPC: 0.58658 cumulative IPC: 0.47657 (Simulation time: 0 hr 26 min 35 sec) 
Heartbeat CPU  0 instructions:  534000003 cycles:  988017912 heartbeat IPC: 0.67020 cumulative IPC: 0.47689 (Simulation time: 0 hr 26 min 38 sec) 
Heartbeat CPU  0 instructions:  535000003 cycles:  989475658 heartbeat IPC: 0.68599 cumulative IPC: 0.47723 (Simulation time: 0 hr 26 min 41 sec) 
Heartbeat CPU  0 instructions:  536000000 cycles:  990926704 heartbeat IPC: 0.68916 cumulative IPC: 0.47756 (Simulation time: 0 hr 26 min 44 sec) 
Heartbeat CPU  0 instructions:  537000003 cycles:  992383665 heartbeat IPC: 0.68636 cumulative IPC: 0.47789 (Simulation time: 0 hr 26 min 47 sec) 
Heartbeat CPU  0 instructions:  538000003 cycles:  993841769 heartbeat IPC: 0.68582 cumulative IPC: 0.47823 (Simulation time: 0 hr 26 min 50 sec) 
Heartbeat CPU  0 instructions:  539000003 cycles:  995303047 heartbeat IPC: 0.68433 cumulative IPC: 0.47855 (Simulation time: 0 hr 26 min 53 sec) 
Heartbeat CPU  0 instructions:  540000000 cycles:  996763254 heartbeat IPC: 0.68483 cumulative IPC: 0.47888 (Simulation time: 0 hr 26 min 56 sec) 
Heartbeat CPU  0 instructions:  541000001 cycles:  998229319 heartbeat IPC: 0.68210 cumulative IPC: 0.47921 (Simulation time: 0 hr 26 min 58 sec) 
Heartbeat CPU  0 instructions:  542000001 cycles:  999691509 heartbeat IPC: 0.68391 cumulative IPC: 0.47953 (Simulation time: 0 hr 27 min 1 sec) 
Heartbeat CPU  0 instructions:  543000001 cycles: 1001153703 heartbeat IPC: 0.68390 cumulative IPC: 0.47985 (Simulation time: 0 hr 27 min 4 sec) 
Heartbeat CPU  0 instructions:  544000000 cycles: 1002621728 heartbeat IPC: 0.68119 cumulative IPC: 0.48017 (Simulation time: 0 hr 27 min 7 sec) 
Heartbeat CPU  0 instructions:  545000003 cycles: 1004089568 heartbeat IPC: 0.68128 cumulative IPC: 0.48049 (Simulation time: 0 hr 27 min 10 sec) 
Heartbeat CPU  0 instructions:  546000003 cycles: 1005575744 heartbeat IPC: 0.67287 cumulative IPC: 0.48080 (Simulation time: 0 hr 27 min 13 sec) 
Heartbeat CPU  0 instructions:  547000001 cycles: 1007055867 heartbeat IPC: 0.67562 cumulative IPC: 0.48111 (Simulation time: 0 hr 27 min 16 sec) 
Heartbeat CPU  0 instructions:  548000000 cycles: 1008546330 heartbeat IPC: 0.67093 cumulative IPC: 0.48141 (Simulation time: 0 hr 27 min 19 sec) 
Heartbeat CPU  0 instructions:  549000003 cycles: 1011411806 heartbeat IPC: 0.34898 cumulative IPC: 0.48101 (Simulation time: 0 hr 27 min 23 sec) 
Heartbeat CPU  0 instructions:  550000000 cycles: 1014283513 heartbeat IPC: 0.34822 cumulative IPC: 0.48060 (Simulation time: 0 hr 27 min 26 sec) 
Heartbeat CPU  0 instructions:  551000003 cycles: 1017178058 heartbeat IPC: 0.34548 cumulative IPC: 0.48018 (Simulation time: 0 hr 27 min 30 sec) 
Heartbeat CPU  0 instructions:  552000000 cycles: 1020050895 heartbeat IPC: 0.34809 cumulative IPC: 0.47978 (Simulation time: 0 hr 27 min 33 sec) 
Heartbeat CPU  0 instructions:  553000000 cycles: 1022938570 heartbeat IPC: 0.34630 cumulative IPC: 0.47937 (Simulation time: 0 hr 27 min 37 sec) 
Heartbeat CPU  0 instructions:  554000001 cycles: 1025831702 heartbeat IPC: 0.34565 cumulative IPC: 0.47897 (Simulation time: 0 hr 27 min 41 sec) 
Heartbeat CPU  0 instructions:  555000000 cycles: 1028714467 heartbeat IPC: 0.34689 cumulative IPC: 0.47857 (Simulation time: 0 hr 27 min 44 sec) 
Heartbeat CPU  0 instructions:  556000000 cycles: 1031616488 heartbeat IPC: 0.34459 cumulative IPC: 0.47816 (Simulation time: 0 hr 27 min 48 sec) 
Heartbeat CPU  0 instructions:  557000001 cycles: 1034510128 heartbeat IPC: 0.34559 cumulative IPC: 0.47776 (Simulation time: 0 hr 27 min 51 sec) 
Heartbeat CPU  0 instructions:  558000003 cycles: 1037399224 heartbeat IPC: 0.34613 cumulative IPC: 0.47736 (Simulation time: 0 hr 27 min 55 sec) 
Heartbeat CPU  0 instructions:  559000002 cycles: 1040282228 heartbeat IPC: 0.34686 cumulative IPC: 0.47697 (Simulation time: 0 hr 27 min 58 sec) 
Heartbeat CPU  0 instructions:  560000000 cycles: 1043160669 heartbeat IPC: 0.34741 cumulative IPC: 0.47658 (Simulation time: 0 hr 28 min 2 sec) 
Heartbeat CPU  0 instructions:  561000003 cycles: 1046237125 heartbeat IPC: 0.32505 cumulative IPC: 0.47610 (Simulation time: 0 hr 28 min 5 sec) 
Heartbeat CPU  0 instructions:  562000001 cycles: 1049140397 heartbeat IPC: 0.34444 cumulative IPC: 0.47571 (Simulation time: 0 hr 28 min 9 sec) 
Heartbeat CPU  0 instructions:  563000003 cycles: 1052045415 heartbeat IPC: 0.34423 cumulative IPC: 0.47532 (Simulation time: 0 hr 28 min 12 sec) 
Heartbeat CPU  0 instructions:  564000000 cycles: 1054959090 heartbeat IPC: 0.34321 cumulative IPC: 0.47492 (Simulation time: 0 hr 28 min 16 sec) 
Heartbeat CPU  0 instructions:  565000001 cycles: 1057870966 heartbeat IPC: 0.34342 cumulative IPC: 0.47453 (Simulation time: 0 hr 28 min 19 sec) 
Heartbeat CPU  0 instructions:  566000001 cycles: 1060784671 heartbeat IPC: 0.34321 cumulative IPC: 0.47414 (Simulation time: 0 hr 28 min 23 sec) 
Heartbeat CPU  0 instructions:  567000001 cycles: 1063708755 heartbeat IPC: 0.34199 cumulative IPC: 0.47375 (Simulation time: 0 hr 28 min 26 sec) 
Heartbeat CPU  0 instructions:  568000000 cycles: 1066620520 heartbeat IPC: 0.34343 cumulative IPC: 0.47337 (Simulation time: 0 hr 28 min 30 sec) 
Heartbeat CPU  0 instructions:  569000001 cycles: 1069533315 heartbeat IPC: 0.34331 cumulative IPC: 0.47298 (Simulation time: 0 hr 28 min 33 sec) 
Heartbeat CPU  0 instructions:  570000000 cycles: 1072446886 heartbeat IPC: 0.34322 cumulative IPC: 0.47260 (Simulation time: 0 hr 28 min 37 sec) 
Heartbeat CPU  0 instructions:  571000002 cycles: 1075365845 heartbeat IPC: 0.34259 cumulative IPC: 0.47222 (Simulation time: 0 hr 28 min 40 sec) 
Heartbeat CPU  0 instructions:  572000000 cycles: 1078273215 heartbeat IPC: 0.34395 cumulative IPC: 0.47185 (Simulation time: 0 hr 28 min 44 sec) 
Heartbeat CPU  0 instructions:  573000000 cycles: 1080567049 heartbeat IPC: 0.43595 cumulative IPC: 0.47177 (Simulation time: 0 hr 28 min 47 sec) 
Heartbeat CPU  0 instructions:  574000002 cycles: 1082234248 heartbeat IPC: 0.59981 cumulative IPC: 0.47198 (Simulation time: 0 hr 28 min 50 sec) 
Heartbeat CPU  0 instructions:  575000000 cycles: 1083904562 heartbeat IPC: 0.59869 cumulative IPC: 0.47219 (Simulation time: 0 hr 28 min 53 sec) 
Heartbeat CPU  0 instructions:  576000000 cycles: 1085578723 heartbeat IPC: 0.59731 cumulative IPC: 0.47240 (Simulation time: 0 hr 28 min 56 sec) 
Heartbeat CPU  0 instructions:  577000001 cycles: 1087233121 heartbeat IPC: 0.60445 cumulative IPC: 0.47262 (Simulation time: 0 hr 28 min 59 sec) 
Heartbeat CPU  0 instructions:  578000000 cycles: 1088915636 heartbeat IPC: 0.59435 cumulative IPC: 0.47282 (Simulation time: 0 hr 29 min 2 sec) 
Heartbeat CPU  0 instructions:  579000000 cycles: 1090618685 heartbeat IPC: 0.58718 cumulative IPC: 0.47301 (Simulation time: 0 hr 29 min 5 sec) 
Heartbeat CPU  0 instructions:  580000000 cycles: 1092303130 heartbeat IPC: 0.59367 cumulative IPC: 0.47321 (Simulation time: 0 hr 29 min 8 sec) 
Heartbeat CPU  0 instructions:  581000001 cycles: 1094002254 heartbeat IPC: 0.58854 cumulative IPC: 0.47340 (Simulation time: 0 hr 29 min 11 sec) 
Heartbeat CPU  0 instructions:  582000003 cycles: 1095714670 heartbeat IPC: 0.58397 cumulative IPC: 0.47359 (Simulation time: 0 hr 29 min 14 sec) 
Heartbeat CPU  0 instructions:  583000000 cycles: 1097438301 heartbeat IPC: 0.58017 cumulative IPC: 0.47377 (Simulation time: 0 hr 29 min 17 sec) 
Heartbeat CPU  0 instructions:  584000000 cycles: 1099151747 heartbeat IPC: 0.58362 cumulative IPC: 0.47395 (Simulation time: 0 hr 29 min 21 sec) 
Heartbeat CPU  0 instructions:  585000002 cycles: 1101178453 heartbeat IPC: 0.49341 cumulative IPC: 0.47399 (Simulation time: 0 hr 29 min 24 sec) 
Heartbeat CPU  0 instructions:  586000001 cycles: 1102907827 heartbeat IPC: 0.57824 cumulative IPC: 0.47417 (Simulation time: 0 hr 29 min 27 sec) 
Heartbeat CPU  0 instructions:  587000000 cycles: 1104637968 heartbeat IPC: 0.57799 cumulative IPC: 0.47434 (Simulation time: 0 hr 29 min 30 sec) 
Heartbeat CPU  0 instructions:  588000000 cycles: 1106374632 heartbeat IPC: 0.57582 cumulative IPC: 0.47451 (Simulation time: 0 hr 29 min 33 sec) 
Heartbeat CPU  0 instructions:  589000001 cycles: 1108114941 heartbeat IPC: 0.57461 cumulative IPC: 0.47468 (Simulation time: 0 hr 29 min 36 sec) 
Heartbeat CPU  0 instructions:  590000001 cycles: 1109847243 heartbeat IPC: 0.57727 cumulative IPC: 0.47486 (Simulation time: 0 hr 29 min 39 sec) 
Heartbeat CPU  0 instructions:  591000000 cycles: 1111594007 heartbeat IPC: 0.57249 cumulative IPC: 0.47502 (Simulation time: 0 hr 29 min 42 sec) 
Heartbeat CPU  0 instructions:  592000000 cycles: 1113338269 heartbeat IPC: 0.57331 cumulative IPC: 0.47519 (Simulation time: 0 hr 29 min 45 sec) 
Heartbeat CPU  0 instructions:  593000002 cycles: 1115104776 heartbeat IPC: 0.56609 cumulative IPC: 0.47534 (Simulation time: 0 hr 29 min 48 sec) 
Heartbeat CPU  0 instructions:  594000001 cycles: 1116826436 heartbeat IPC: 0.58083 cumulative IPC: 0.47552 (Simulation time: 0 hr 29 min 51 sec) 
Heartbeat CPU  0 instructions:  595000002 cycles: 1118553974 heartbeat IPC: 0.57886 cumulative IPC: 0.47569 (Simulation time: 0 hr 29 min 54 sec) 
Heartbeat CPU  0 instructions:  596000000 cycles: 1120274914 heartbeat IPC: 0.58108 cumulative IPC: 0.47586 (Simulation time: 0 hr 29 min 58 sec) 
Heartbeat CPU  0 instructions:  597000003 cycles: 1122107155 heartbeat IPC: 0.54578 cumulative IPC: 0.47598 (Simulation time: 0 hr 30 min 1 sec) 
Heartbeat CPU  0 instructions:  598000002 cycles: 1123590330 heartbeat IPC: 0.67423 cumulative IPC: 0.47627 (Simulation time: 0 hr 30 min 4 sec) 
Heartbeat CPU  0 instructions:  599000002 cycles: 1125064288 heartbeat IPC: 0.67845 cumulative IPC: 0.47655 (Simulation time: 0 hr 30 min 7 sec) 
Heartbeat CPU  0 instructions:  600000000 cycles: 1126536153 heartbeat IPC: 0.67941 cumulative IPC: 0.47684 (Simulation time: 0 hr 30 min 10 sec) 
Finished CPU 0 instructions: 500000000 cycles: 1048580193 cumulative IPC: 0.47684 (Simulation time: 0 hr 30 min 10 sec) 

ChampSim completed all CPUs

[ROI Statistics]
Core_0_instructions 500000000
Core_0_cycles 1048580193
Core_0_IPC 0.47684

Core_0_branch_prediction_accuracy 99.79948
Core_0_branch_MPKI 0.03552
Core_0_average_ROB_occupancy_at_mispredict 248.36116

Core_0_L1D_total_access 242841232
Core_0_L1D_total_hit 230563648
Core_0_L1D_total_miss 12277584
Core_0_L1D_loads 218537581
Core_0_L1D_load_hit 206435523
Core_0_L1D_load_miss 12102058
Core_0_L1D_RFOs 24303651
Core_0_L1D_RFO_hit 24128125
Core_0_L1D_RFO_miss 175526
Core_0_L1D_prefetches 0
Core_0_L1D_prefetch_hit 0
Core_0_L1D_prefetch_miss 0
Core_0_L1D_writebacks 0
Core_0_L1D_writeback_hit 0
Core_0_L1D_writeback_miss 0
Core_0_L1D_prefetch_requested 0
Core_0_L1D_prefetch_dropped 0
Core_0_L1D_prefetch_issued 0
Core_0_L1D_prefetch_filled 0
Core_0_L1D_prefetch_useful 0
Core_0_L1D_prefetch_useless 0
Core_0_L1D_prefetch_late 0
Core_0_L1D_average_miss_latency 95.33657

Core_0_L1D_rq_access 258718853
Core_0_L1D_rq_forward 0
Core_0_L1D_rq_merged 39094959
Core_0_L1D_rq_to_cache 219623894
Core_0_L1D_rq_full 0

Core_0_L1D_wq_access 25182875
Core_0_L1D_wq_forward 0
Core_0_L1D_wq_merged 212772
Core_0_L1D_wq_to_cache 24970103
Core_0_L1D_wq_full 976359

Core_0_L1D_pq_access 0
Core_0_L1D_pq_forward 0
Core_0_L1D_pq_merged 0
Core_0_L1D_pq_to_cache 0
Core_0_L1D_pq_full 0

Core_0_L1D_acc_epochs 1051385
Core_0_L1D_acc_level_0 1051385
Core_0_L1D_acc_level_1 0
Core_0_L1D_acc_level_2 0
Core_0_L1D_acc_level_3 0
Core_0_L1D_acc_level_4 0
Core_0_L1D_acc_level_5 0
Core_0_L1D_acc_level_6 0
Core_0_L1D_acc_level_7 0
Core_0_L1D_acc_level_8 0
Core_0_L1D_acc_level_9 0

Core_0_L1I_total_access 132006984
Core_0_L1I_total_hit 132006335
Core_0_L1I_total_miss 649
Core_0_L1I_loads 132006984
Core_0_L1I_load_hit 132006335
Core_0_L1I_load_miss 649
Core_0_L1I_RFOs 0
Core_0_L1I_RFO_hit 0
Core_0_L1I_RFO_miss 0
Core_0_L1I_prefetches 0
Core_0_L1I_prefetch_hit 0
Core_0_L1I_prefetch_miss 0
Core_0_L1I_writebacks 0
Core_0_L1I_writeback_hit 0
Core_0_L1I_writeback_miss 0
Core_0_L1I_prefetch_requested 0
Core_0_L1I_prefetch_dropped 0
Core_0_L1I_prefetch_issued 0
Core_0_L1I_prefetch_filled 0
Core_0_L1I_prefetch_useful 0
Core_0_L1I_prefetch_useless 0
Core_0_L1I_prefetch_late 0
Core_0_L1I_average_miss_latency 665.20801

Core_0_L1I_rq_access 500000003
Core_0_L1I_rq_forward 0
Core_0_L1I_rq_merged 367992436
Core_0_L1I_rq_to_cache 132007567
Core_0_L1I_rq_full 0

Core_0_L1I_wq_access 0
Core_0_L1I_wq_forward 0
Core_0_L1I_wq_merged 0
Core_0_L1I_wq_to_cache 0
Core_0_L1I_wq_full 0

Core_0_L1I_pq_access 0
Core_0_L1I_pq_forward 0
Core_0_L1I_pq_merged 0
Core_0_L1I_pq_to_cache 0
Core_0_L1I_pq_full 0

Core_0_L1I_acc_epochs 1051385
Core_0_L1I_acc_level_0 1051385
Core_0_L1I_acc_level_1 0
Core_0_L1I_acc_level_2 0
Core_0_L1I_acc_level_3 0
Core_0_L1I_acc_level_4 0
Core_0_L1I_acc_level_5 0
Core_0_L1I_acc_level_6 0
Core_0_L1I_acc_level_7 0
Core_0_L1I_acc_level_8 0
Core_0_L1I_acc_level_9 0

Core_0_L2C_total_access 14898035
Core_0_L2C_total_hit 10605289
Core_0_L2C_total_miss 4292746
Core_0_L2C_loads 12102443
Core_0_L2C_load_hit 7980105
Core_0_L2C_load_miss 4122338
Core_0_L2C_RFOs 175490
Core_0_L2C_RFO_hit 5590
Core_0_L2C_RFO_miss 169900
Core_0_L2C_prefetches 0
Core_0_L2C_prefetch_hit 0
Core_0_L2C_prefetch_miss 0
Core_0_L2C_writebacks 2620102
Core_0_L2C_writeback_hit 2619594
Core_0_L2C_writeback_miss 508
Core_0_L2C_prefetch_requested 0
Core_0_L2C_prefetch_dropped 0
Core_0_L2C_prefetch_issued 0
Core_0_L2C_prefetch_filled 0
Core_0_L2C_prefetch_useful 0
Core_0_L2C_prefetch_useless 0
Core_0_L2C_prefetch_late 0
Core_0_L2C_average_miss_latency 227.59317

Core_0_L2C_rq_access 12278233
Core_0_L2C_rq_forward 0
Core_0_L2C_rq_merged 0
Core_0_L2C_rq_to_cache 12277933
Core_0_L2C_rq_full 0

Core_0_L2C_wq_access 2620102
Core_0_L2C_wq_forward 300
Core_0_L2C_wq_merged 0
Core_0_L2C_wq_to_cache 2620102
Core_0_L2C_wq_full 0

Core_0_L2C_pq_access 0
Core_0_L2C_pq_forward 0
Core_0_L2C_pq_merged 0
Core_0_L2C_pq_to_cache 0
Core_0_L2C_pq_full 0

Core_0_L2C_acc_epochs 1051385
Core_0_L2C_acc_level_0 1051385
Core_0_L2C_acc_level_1 0
Core_0_L2C_acc_level_2 0
Core_0_L2C_acc_level_3 0
Core_0_L2C_acc_level_4 0
Core_0_L2C_acc_level_5 0
Core_0_L2C_acc_level_6 0
Core_0_L2C_acc_level_7 0
Core_0_L2C_acc_level_8 0
Core_0_L2C_acc_level_9 0

Core_0_LLC_total_access 5456690
Core_0_LLC_total_hit 1659947
Core_0_LLC_total_miss 3796743
Core_0_LLC_loads 4122276
Core_0_LLC_load_hit 937248
Core_0_LLC_load_miss 3185028
Core_0_LLC_RFOs 169900
Core_0_LLC_RFO_hit 149623
Core_0_LLC_RFO_miss 20277
Core_0_LLC_prefetches 0
Core_0_LLC_prefetch_hit 0
Core_0_LLC_prefetch_miss 0
Core_0_LLC_writebacks 1164514
Core_0_LLC_writeback_hit 573076
Core_0_LLC_writeback_miss 591438
Core_0_LLC_prefetch_requested 0
Core_0_LLC_prefetch_dropped 0
Core_0_LLC_prefetch_issued 0
Core_0_LLC_prefetch_filled 0
Core_0_LLC_prefetch_useful 0
Core_0_LLC_prefetch_useless 0
Core_0_LLC_prefetch_late 0
Core_0_LLC_average_miss_latency 220.97277

Core_0_LLC_rq_access 4292238
Core_0_LLC_rq_forward 0
Core_0_LLC_rq_merged 0
Core_0_LLC_rq_to_cache 4292176
Core_0_LLC_rq_full 0

Core_0_LLC_wq_access 1164514
Core_0_LLC_wq_forward 62
Core_0_LLC_wq_merged 0
Core_0_LLC_wq_to_cache 1164514
Core_0_LLC_wq_full 0

Core_0_LLC_pq_access 0
Core_0_LLC_pq_forward 0
Core_0_LLC_pq_merged 0
Core_0_LLC_pq_to_cache 0
Core_0_LLC_pq_full 0

Core_0_LLC_acc_epochs 1100133
Core_0_LLC_acc_level_0 1100133
Core_0_LLC_acc_level_1 0
Core_0_LLC_acc_level_2 0
Core_0_LLC_acc_level_3 0
Core_0_LLC_acc_level_4 0
Core_0_LLC_acc_level_5 0
Core_0_LLC_acc_level_6 0
Core_0_LLC_acc_level_7 0
Core_0_LLC_acc_level_8 0
Core_0_LLC_acc_level_9 0

Core_0_major_page_fault 0
Core_0_minor_page_fault 102074

Channel_0_RQ_row_buffer_hit 1032158
Channel_0_RQ_row_buffer_miss 2173145
Channel_0_WQ_row_buffer_hit 217200
Channel_0_WQ_row_buffer_miss 583153
Channel_0_WQ_full 0
Channel_0_dbus_congested 1872503

avg_congested_cycle 75

DRAM_bw_pochs 4400532
DRAM_bw_level_0 1738000
DRAM_bw_level_1 1194294
DRAM_bw_level_2 0
DRAM_bw_level_3 1468238
