*************************************************
   ChampSim Multicore Out-of-Order Simulator
   Last compiled: Dec 11 2024 17:59:53
*************************************************
parsing config file: /home/functionmain/桌面/Pythia/config/spp_dev2.ini

trace_0 /home/functionmain/桌面/Pythia/traces/459.GemsFDTD-1211B.champsimtrace.xz
adding L2C_PREFETCHER: SPP_dev2
Initialize SIGNATURE TABLE
ST_SET: 1
ST_WAY: 256
ST_TAG_BIT: 16
ST_TAG_MASK: ffff

Initialize PATTERN TABLE
PT_SET: 512
PT_WAY: 4
SIG_DELTA_BIT: 7
C_SIG_BIT: 4
C_DELTA_BIT: 4

Initialize PREFETCH FILTER
FILTER_SET: 1024
fill_threshold: 90
pf_threshold: 40

Initialize SHIP state
warmup_instructions 100000000
simulation_instructions 500000000
champsim_seed 263
measure_ipc 0
measure_ipc_epoch 1000
measure_dram_bw 1
measure_dram_bw_epoch 256
measure_cache_acc 1
measure_cache_acc_epoch 1024
l1d_perfect 0
l2c_perfect 0
llc_perfect 0
l1d_semi_perfect 0
l2c_semi_perfect 0
llc_semi_perfect 0
semi_perfect_cache_page_buffer_size 64

num_cpus 1
cpu_freq 4000
dram_io_freq 4800
page_size 4096
block_size 64
max_read_per_cycle 8
max_fill_per_cycle 1
dram_channels 1
log2_dram_channels 0
dram_ranks 1
dram_banks 8
dram_rows 65536
dram_columns 128
dram_row_size 8
dram_size 4096
dram_pages 1048576

fetch_width 6
decode_width 6
exec_width 4
lq_width 2
sq_width 2
retire_width 4
scheduler_size 128
branch_mispredict_penalty 20
rob_size 256
lq_size 72
sq_size 56
num_instr_destinations_sparc 4
num_instr_destinations 2
num_instr_sources 4

itlb_set 16
itlb_way 8
itlb_rq_size 16
itlb_wq_size 16
itlb_pq_size 0
itlb_mshr_size 8
itlb_latency 1

dtlb_set 16
dtlb_way 4
dtlb_rq_size 16
dtlb_wq_size 16
dtlb_pq_size 0
dtlb_mshr_size 8
dtlb_latency 1

stlb_set 128
stlb_way 12
stlb_rq_size 32
stlb_wq_size 32
stlb_pq_size 0
stlb_mshr_size 16
stlb_latency 8

l1i_size 32
l1i_set 64
l1i_way 8
l1i_rq_size 64
l1i_wq_size 64
l1i_pq_size 8
l1i_mshr_size 8
l1i_latency 1

l1d_size 32
l1d_set 64
l1d_way 8
l1d_rq_size 64
l1d_wq_size 64
l1d_pq_size 8
l1d_mshr_size 16
l1d_latency 4

l2c_size 256
l2c_set 512
l2c_way 8
l2c_rq_size 32
l2c_wq_size 32
l2c_pq_size 32
l2c_mshr_size 32
l2c_latency 10

llc_size 2048
llc_set 2048
llc_way 16
llc_rq_size 32
llc_wq_size 32
llc_pq_size 32
llc_mshr_size 64
llc_latency 20

dram_channel_width 8
dram_wq_size 64
dram_rq_size 64
tRP 15
tRCD 15
tCAS 12.5
dram_dbus_turn_around_time 30
dram_write_high_wm 56
dram_write_low_wm 48
min_dram_writes_per_switch 16
dram_mtps 4800
dram_dbus_return_time 6


Heartbeat CPU  0 instructions:    1000003 cycles:     792316 heartbeat IPC: 1.26213 cumulative IPC: 1.26213 (Simulation time: 0 hr 0 min 2 sec) 
Heartbeat CPU  0 instructions:    2000002 cycles:    1584052 heartbeat IPC: 1.26305 cumulative IPC: 1.26259 (Simulation time: 0 hr 0 min 5 sec) 
Heartbeat CPU  0 instructions:    3000003 cycles:    2375810 heartbeat IPC: 1.26301 cumulative IPC: 1.26273 (Simulation time: 0 hr 0 min 7 sec) 
Heartbeat CPU  0 instructions:    4000000 cycles:    3167487 heartbeat IPC: 1.26314 cumulative IPC: 1.26283 (Simulation time: 0 hr 0 min 10 sec) 
Heartbeat CPU  0 instructions:    5000000 cycles:    3959187 heartbeat IPC: 1.26310 cumulative IPC: 1.26289 (Simulation time: 0 hr 0 min 12 sec) 
Heartbeat CPU  0 instructions:    6000002 cycles:    4750942 heartbeat IPC: 1.26302 cumulative IPC: 1.26291 (Simulation time: 0 hr 0 min 15 sec) 
Heartbeat CPU  0 instructions:    7000000 cycles:    5542531 heartbeat IPC: 1.26328 cumulative IPC: 1.26296 (Simulation time: 0 hr 0 min 17 sec) 
Heartbeat CPU  0 instructions:    8000000 cycles:    6334367 heartbeat IPC: 1.26289 cumulative IPC: 1.26295 (Simulation time: 0 hr 0 min 20 sec) 
Heartbeat CPU  0 instructions:    9000000 cycles:    7126140 heartbeat IPC: 1.26299 cumulative IPC: 1.26296 (Simulation time: 0 hr 0 min 22 sec) 
Heartbeat CPU  0 instructions:   10000001 cycles:    7917666 heartbeat IPC: 1.26338 cumulative IPC: 1.26300 (Simulation time: 0 hr 0 min 25 sec) 
Heartbeat CPU  0 instructions:   11000000 cycles:    8709103 heartbeat IPC: 1.26352 cumulative IPC: 1.26305 (Simulation time: 0 hr 0 min 27 sec) 
Heartbeat CPU  0 instructions:   12000000 cycles:    9500907 heartbeat IPC: 1.26294 cumulative IPC: 1.26304 (Simulation time: 0 hr 0 min 30 sec) 
Heartbeat CPU  0 instructions:   13000000 cycles:   10292611 heartbeat IPC: 1.26310 cumulative IPC: 1.26304 (Simulation time: 0 hr 0 min 32 sec) 
Heartbeat CPU  0 instructions:   14000002 cycles:   11084269 heartbeat IPC: 1.26317 cumulative IPC: 1.26305 (Simulation time: 0 hr 0 min 35 sec) 
Heartbeat CPU  0 instructions:   15000000 cycles:   11876022 heartbeat IPC: 1.26302 cumulative IPC: 1.26305 (Simulation time: 0 hr 0 min 37 sec) 
Heartbeat CPU  0 instructions:   16000000 cycles:   12667763 heartbeat IPC: 1.26304 cumulative IPC: 1.26305 (Simulation time: 0 hr 0 min 40 sec) 
Heartbeat CPU  0 instructions:   17000001 cycles:   13459534 heartbeat IPC: 1.26299 cumulative IPC: 1.26305 (Simulation time: 0 hr 0 min 43 sec) 
Heartbeat CPU  0 instructions:   18000002 cycles:   14251111 heartbeat IPC: 1.26330 cumulative IPC: 1.26306 (Simulation time: 0 hr 0 min 45 sec) 
Heartbeat CPU  0 instructions:   19000000 cycles:   15042920 heartbeat IPC: 1.26293 cumulative IPC: 1.26305 (Simulation time: 0 hr 0 min 48 sec) 
Heartbeat CPU  0 instructions:   20000000 cycles:   15834334 heartbeat IPC: 1.26356 cumulative IPC: 1.26308 (Simulation time: 0 hr 0 min 50 sec) 
Heartbeat CPU  0 instructions:   21000000 cycles:   16625833 heartbeat IPC: 1.26343 cumulative IPC: 1.26309 (Simulation time: 0 hr 0 min 53 sec) 
Heartbeat CPU  0 instructions:   22000003 cycles:   17417513 heartbeat IPC: 1.26314 cumulative IPC: 1.26310 (Simulation time: 0 hr 0 min 55 sec) 
Heartbeat CPU  0 instructions:   23000000 cycles:   18209250 heartbeat IPC: 1.26304 cumulative IPC: 1.26309 (Simulation time: 0 hr 0 min 58 sec) 
Heartbeat CPU  0 instructions:   24000000 cycles:   19000970 heartbeat IPC: 1.26307 cumulative IPC: 1.26309 (Simulation time: 0 hr 1 min 0 sec) 
Heartbeat CPU  0 instructions:   25000001 cycles:   19792739 heartbeat IPC: 1.26300 cumulative IPC: 1.26309 (Simulation time: 0 hr 1 min 3 sec) 
Heartbeat CPU  0 instructions:   26000002 cycles:   20584436 heartbeat IPC: 1.26311 cumulative IPC: 1.26309 (Simulation time: 0 hr 1 min 5 sec) 
Heartbeat CPU  0 instructions:   27000001 cycles:   21376043 heartbeat IPC: 1.26325 cumulative IPC: 1.26310 (Simulation time: 0 hr 1 min 8 sec) 
Heartbeat CPU  0 instructions:   28000000 cycles:   22167913 heartbeat IPC: 1.26283 cumulative IPC: 1.26309 (Simulation time: 0 hr 1 min 10 sec) 
Heartbeat CPU  0 instructions:   29000001 cycles:   22959678 heartbeat IPC: 1.26300 cumulative IPC: 1.26308 (Simulation time: 0 hr 1 min 13 sec) 
Heartbeat CPU  0 instructions:   30000002 cycles:   23751331 heartbeat IPC: 1.26318 cumulative IPC: 1.26309 (Simulation time: 0 hr 1 min 15 sec) 
Heartbeat CPU  0 instructions:   31000001 cycles:   24542935 heartbeat IPC: 1.26326 cumulative IPC: 1.26309 (Simulation time: 0 hr 1 min 18 sec) 
Heartbeat CPU  0 instructions:   32000000 cycles:   25334226 heartbeat IPC: 1.26376 cumulative IPC: 1.26311 (Simulation time: 0 hr 1 min 20 sec) 
Heartbeat CPU  0 instructions:   33000001 cycles:   26126051 heartbeat IPC: 1.26291 cumulative IPC: 1.26311 (Simulation time: 0 hr 1 min 23 sec) 
Heartbeat CPU  0 instructions:   34000003 cycles:   26917784 heartbeat IPC: 1.26305 cumulative IPC: 1.26311 (Simulation time: 0 hr 1 min 25 sec) 
Heartbeat CPU  0 instructions:   35000001 cycles:   27709477 heartbeat IPC: 1.26311 cumulative IPC: 1.26311 (Simulation time: 0 hr 1 min 28 sec) 
Heartbeat CPU  0 instructions:   36000000 cycles:   28501254 heartbeat IPC: 1.26298 cumulative IPC: 1.26310 (Simulation time: 0 hr 1 min 30 sec) 
Heartbeat CPU  0 instructions:   37000000 cycles:   29293046 heartbeat IPC: 1.26296 cumulative IPC: 1.26310 (Simulation time: 0 hr 1 min 33 sec) 
Heartbeat CPU  0 instructions:   38000000 cycles:   30084655 heartbeat IPC: 1.26325 cumulative IPC: 1.26310 (Simulation time: 0 hr 1 min 35 sec) 
Heartbeat CPU  0 instructions:   39000001 cycles:   30876265 heartbeat IPC: 1.26325 cumulative IPC: 1.26311 (Simulation time: 0 hr 1 min 38 sec) 
Heartbeat CPU  0 instructions:   40000000 cycles:   31659049 heartbeat IPC: 1.27749 cumulative IPC: 1.26346 (Simulation time: 0 hr 1 min 40 sec) 
Heartbeat CPU  0 instructions:   41000001 cycles:   32432058 heartbeat IPC: 1.29365 cumulative IPC: 1.26418 (Simulation time: 0 hr 1 min 43 sec) 
Heartbeat CPU  0 instructions:   42000003 cycles:   33204752 heartbeat IPC: 1.29418 cumulative IPC: 1.26488 (Simulation time: 0 hr 1 min 45 sec) 
Heartbeat CPU  0 instructions:   43000001 cycles:   33980511 heartbeat IPC: 1.28906 cumulative IPC: 1.26543 (Simulation time: 0 hr 1 min 48 sec) 
Heartbeat CPU  0 instructions:   44000000 cycles:   34771906 heartbeat IPC: 1.26359 cumulative IPC: 1.26539 (Simulation time: 0 hr 1 min 51 sec) 
Heartbeat CPU  0 instructions:   45000001 cycles:   35563226 heartbeat IPC: 1.26371 cumulative IPC: 1.26535 (Simulation time: 0 hr 1 min 53 sec) 
Heartbeat CPU  0 instructions:   46000003 cycles:   36354818 heartbeat IPC: 1.26328 cumulative IPC: 1.26531 (Simulation time: 0 hr 1 min 56 sec) 
Heartbeat CPU  0 instructions:   47000001 cycles:   37145953 heartbeat IPC: 1.26400 cumulative IPC: 1.26528 (Simulation time: 0 hr 1 min 58 sec) 
Heartbeat CPU  0 instructions:   48000000 cycles:   37937268 heartbeat IPC: 1.26372 cumulative IPC: 1.26525 (Simulation time: 0 hr 2 min 1 sec) 
Heartbeat CPU  0 instructions:   49000001 cycles:   38728391 heartbeat IPC: 1.26403 cumulative IPC: 1.26522 (Simulation time: 0 hr 2 min 3 sec) 
Heartbeat CPU  0 instructions:   50000003 cycles:   39519554 heartbeat IPC: 1.26396 cumulative IPC: 1.26520 (Simulation time: 0 hr 2 min 6 sec) 
Heartbeat CPU  0 instructions:   51000001 cycles:   40310973 heartbeat IPC: 1.26355 cumulative IPC: 1.26516 (Simulation time: 0 hr 2 min 8 sec) 
Heartbeat CPU  0 instructions:   52000000 cycles:   41102351 heartbeat IPC: 1.26362 cumulative IPC: 1.26513 (Simulation time: 0 hr 2 min 11 sec) 
Heartbeat CPU  0 instructions:   53000003 cycles:   41893833 heartbeat IPC: 1.26346 cumulative IPC: 1.26510 (Simulation time: 0 hr 2 min 13 sec) 
Heartbeat CPU  0 instructions:   54000002 cycles:   42685244 heartbeat IPC: 1.26356 cumulative IPC: 1.26507 (Simulation time: 0 hr 2 min 16 sec) 
Heartbeat CPU  0 instructions:   55000002 cycles:   43476483 heartbeat IPC: 1.26384 cumulative IPC: 1.26505 (Simulation time: 0 hr 2 min 18 sec) 
Heartbeat CPU  0 instructions:   56000000 cycles:   44267659 heartbeat IPC: 1.26394 cumulative IPC: 1.26503 (Simulation time: 0 hr 2 min 21 sec) 
Heartbeat CPU  0 instructions:   57000000 cycles:   45059185 heartbeat IPC: 1.26338 cumulative IPC: 1.26500 (Simulation time: 0 hr 2 min 23 sec) 
Heartbeat CPU  0 instructions:   58000002 cycles:   45850478 heartbeat IPC: 1.26376 cumulative IPC: 1.26498 (Simulation time: 0 hr 2 min 26 sec) 
Heartbeat CPU  0 instructions:   59000000 cycles:   46641909 heartbeat IPC: 1.26353 cumulative IPC: 1.26496 (Simulation time: 0 hr 2 min 28 sec) 
Heartbeat CPU  0 instructions:   60000000 cycles:   47433191 heartbeat IPC: 1.26377 cumulative IPC: 1.26494 (Simulation time: 0 hr 2 min 31 sec) 
Heartbeat CPU  0 instructions:   61000000 cycles:   48224298 heartbeat IPC: 1.26405 cumulative IPC: 1.26492 (Simulation time: 0 hr 2 min 33 sec) 
Heartbeat CPU  0 instructions:   62000002 cycles:   49015866 heartbeat IPC: 1.26332 cumulative IPC: 1.26490 (Simulation time: 0 hr 2 min 36 sec) 
Heartbeat CPU  0 instructions:   63000000 cycles:   49807241 heartbeat IPC: 1.26362 cumulative IPC: 1.26488 (Simulation time: 0 hr 2 min 38 sec) 
Heartbeat CPU  0 instructions:   64000000 cycles:   50598595 heartbeat IPC: 1.26366 cumulative IPC: 1.26486 (Simulation time: 0 hr 2 min 41 sec) 
Heartbeat CPU  0 instructions:   65000000 cycles:   51390154 heartbeat IPC: 1.26333 cumulative IPC: 1.26483 (Simulation time: 0 hr 2 min 43 sec) 
Heartbeat CPU  0 instructions:   66000003 cycles:   52181421 heartbeat IPC: 1.26380 cumulative IPC: 1.26482 (Simulation time: 0 hr 2 min 46 sec) 
Heartbeat CPU  0 instructions:   67000000 cycles:   52972782 heartbeat IPC: 1.26364 cumulative IPC: 1.26480 (Simulation time: 0 hr 2 min 48 sec) 
Heartbeat CPU  0 instructions:   68000000 cycles:   53763934 heartbeat IPC: 1.26398 cumulative IPC: 1.26479 (Simulation time: 0 hr 2 min 51 sec) 
Heartbeat CPU  0 instructions:   69000001 cycles:   54555285 heartbeat IPC: 1.26366 cumulative IPC: 1.26477 (Simulation time: 0 hr 2 min 53 sec) 
Heartbeat CPU  0 instructions:   70000002 cycles:   55346548 heartbeat IPC: 1.26380 cumulative IPC: 1.26476 (Simulation time: 0 hr 2 min 56 sec) 
Heartbeat CPU  0 instructions:   71000001 cycles:   56137828 heartbeat IPC: 1.26377 cumulative IPC: 1.26474 (Simulation time: 0 hr 2 min 58 sec) 
Heartbeat CPU  0 instructions:   72000000 cycles:   56928944 heartbeat IPC: 1.26404 cumulative IPC: 1.26473 (Simulation time: 0 hr 3 min 1 sec) 
Heartbeat CPU  0 instructions:   73000003 cycles:   57720606 heartbeat IPC: 1.26317 cumulative IPC: 1.26471 (Simulation time: 0 hr 3 min 3 sec) 
Heartbeat CPU  0 instructions:   74000003 cycles:   58511801 heartbeat IPC: 1.26391 cumulative IPC: 1.26470 (Simulation time: 0 hr 3 min 6 sec) 
Heartbeat CPU  0 instructions:   75000001 cycles:   59303074 heartbeat IPC: 1.26378 cumulative IPC: 1.26469 (Simulation time: 0 hr 3 min 8 sec) 
Heartbeat CPU  0 instructions:   76000000 cycles:   60094526 heartbeat IPC: 1.26350 cumulative IPC: 1.26467 (Simulation time: 0 hr 3 min 11 sec) 
Heartbeat CPU  0 instructions:   77000002 cycles:   60885733 heartbeat IPC: 1.26389 cumulative IPC: 1.26466 (Simulation time: 0 hr 3 min 13 sec) 
Heartbeat CPU  0 instructions:   78000001 cycles:   61677062 heartbeat IPC: 1.26370 cumulative IPC: 1.26465 (Simulation time: 0 hr 3 min 16 sec) 
Heartbeat CPU  0 instructions:   79000000 cycles:   62468296 heartbeat IPC: 1.26385 cumulative IPC: 1.26464 (Simulation time: 0 hr 3 min 18 sec) 
Heartbeat CPU  0 instructions:   80000000 cycles:   63259689 heartbeat IPC: 1.26359 cumulative IPC: 1.26463 (Simulation time: 0 hr 3 min 21 sec) 
Heartbeat CPU  0 instructions:   81000000 cycles:   64050957 heartbeat IPC: 1.26379 cumulative IPC: 1.26462 (Simulation time: 0 hr 3 min 23 sec) 
Heartbeat CPU  0 instructions:   82000002 cycles:   64842208 heartbeat IPC: 1.26382 cumulative IPC: 1.26461 (Simulation time: 0 hr 3 min 26 sec) 
Heartbeat CPU  0 instructions:   83000000 cycles:   65633455 heartbeat IPC: 1.26383 cumulative IPC: 1.26460 (Simulation time: 0 hr 3 min 29 sec) 
Heartbeat CPU  0 instructions:   84000000 cycles:   66424772 heartbeat IPC: 1.26372 cumulative IPC: 1.26459 (Simulation time: 0 hr 3 min 31 sec) 
Heartbeat CPU  0 instructions:   85000000 cycles:   67216165 heartbeat IPC: 1.26359 cumulative IPC: 1.26458 (Simulation time: 0 hr 3 min 34 sec) 
Heartbeat CPU  0 instructions:   86000002 cycles:   68007449 heartbeat IPC: 1.26377 cumulative IPC: 1.26457 (Simulation time: 0 hr 3 min 36 sec) 
Heartbeat CPU  0 instructions:   87000000 cycles:   68798762 heartbeat IPC: 1.26372 cumulative IPC: 1.26456 (Simulation time: 0 hr 3 min 39 sec) 
Heartbeat CPU  0 instructions:   88000000 cycles:   69589904 heartbeat IPC: 1.26400 cumulative IPC: 1.26455 (Simulation time: 0 hr 3 min 41 sec) 
Heartbeat CPU  0 instructions:   89000000 cycles:   70381296 heartbeat IPC: 1.26360 cumulative IPC: 1.26454 (Simulation time: 0 hr 3 min 44 sec) 
Heartbeat CPU  0 instructions:   90000003 cycles:   71172477 heartbeat IPC: 1.26394 cumulative IPC: 1.26453 (Simulation time: 0 hr 3 min 46 sec) 
Heartbeat CPU  0 instructions:   91000000 cycles:   71963631 heartbeat IPC: 1.26397 cumulative IPC: 1.26453 (Simulation time: 0 hr 3 min 49 sec) 
Heartbeat CPU  0 instructions:   92000000 cycles:   72754917 heartbeat IPC: 1.26377 cumulative IPC: 1.26452 (Simulation time: 0 hr 3 min 51 sec) 
Heartbeat CPU  0 instructions:   93000001 cycles:   73546064 heartbeat IPC: 1.26399 cumulative IPC: 1.26451 (Simulation time: 0 hr 3 min 54 sec) 
Heartbeat CPU  0 instructions:   94000001 cycles:   74337547 heartbeat IPC: 1.26345 cumulative IPC: 1.26450 (Simulation time: 0 hr 3 min 56 sec) 
Heartbeat CPU  0 instructions:   95000000 cycles:   75128772 heartbeat IPC: 1.26386 cumulative IPC: 1.26450 (Simulation time: 0 hr 3 min 59 sec) 
Heartbeat CPU  0 instructions:   96000000 cycles:   75920060 heartbeat IPC: 1.26376 cumulative IPC: 1.26449 (Simulation time: 0 hr 4 min 1 sec) 
Heartbeat CPU  0 instructions:   97000003 cycles:   76711494 heartbeat IPC: 1.26353 cumulative IPC: 1.26448 (Simulation time: 0 hr 4 min 4 sec) 
Heartbeat CPU  0 instructions:   98000003 cycles:   77502597 heartbeat IPC: 1.26406 cumulative IPC: 1.26447 (Simulation time: 0 hr 4 min 6 sec) 
Heartbeat CPU  0 instructions:   99000003 cycles:   78293906 heartbeat IPC: 1.26373 cumulative IPC: 1.26447 (Simulation time: 0 hr 4 min 9 sec) 
Heartbeat CPU  0 instructions:  100000000 cycles:   79085149 heartbeat IPC: 1.26383 cumulative IPC: 1.26446 (Simulation time: 0 hr 4 min 11 sec) 

Warmup complete CPU  0 instructions:  100000001 cycles:   79085150 (Simulation time: 0 hr 4 min 11 sec) 

Heartbeat CPU  0 instructions:  101000001 cycles:   80799449 heartbeat IPC: 0.58333 cumulative IPC: 0.58333 (Simulation time: 0 hr 4 min 14 sec) 
Heartbeat CPU  0 instructions:  102000002 cycles:   82509468 heartbeat IPC: 0.58479 cumulative IPC: 0.58406 (Simulation time: 0 hr 4 min 17 sec) 
Heartbeat CPU  0 instructions:  103000003 cycles:   84220097 heartbeat IPC: 0.58458 cumulative IPC: 0.58423 (Simulation time: 0 hr 4 min 20 sec) 
Heartbeat CPU  0 instructions:  104000000 cycles:   85937545 heartbeat IPC: 0.58226 cumulative IPC: 0.58374 (Simulation time: 0 hr 4 min 24 sec) 
Heartbeat CPU  0 instructions:  105000001 cycles:   87670705 heartbeat IPC: 0.57698 cumulative IPC: 0.58237 (Simulation time: 0 hr 4 min 27 sec) 
Heartbeat CPU  0 instructions:  106000002 cycles:   89396683 heartbeat IPC: 0.57938 cumulative IPC: 0.58187 (Simulation time: 0 hr 4 min 30 sec) 
Heartbeat CPU  0 instructions:  107000000 cycles:   91120484 heartbeat IPC: 0.58011 cumulative IPC: 0.58162 (Simulation time: 0 hr 4 min 33 sec) 
Heartbeat CPU  0 instructions:  108000000 cycles:   92847565 heartbeat IPC: 0.57901 cumulative IPC: 0.58129 (Simulation time: 0 hr 4 min 36 sec) 
Heartbeat CPU  0 instructions:  109000000 cycles:   94566058 heartbeat IPC: 0.58191 cumulative IPC: 0.58136 (Simulation time: 0 hr 4 min 39 sec) 
Heartbeat CPU  0 instructions:  110000002 cycles:   96277286 heartbeat IPC: 0.58438 cumulative IPC: 0.58166 (Simulation time: 0 hr 4 min 42 sec) 
Heartbeat CPU  0 instructions:  111000001 cycles:   98001277 heartbeat IPC: 0.58005 cumulative IPC: 0.58151 (Simulation time: 0 hr 4 min 45 sec) 
Heartbeat CPU  0 instructions:  112000000 cycles:   99723580 heartbeat IPC: 0.58062 cumulative IPC: 0.58144 (Simulation time: 0 hr 4 min 48 sec) 
Heartbeat CPU  0 instructions:  113000000 cycles:  101441661 heartbeat IPC: 0.58204 cumulative IPC: 0.58149 (Simulation time: 0 hr 4 min 52 sec) 
Heartbeat CPU  0 instructions:  114000002 cycles:  103157708 heartbeat IPC: 0.58274 cumulative IPC: 0.58158 (Simulation time: 0 hr 4 min 55 sec) 
Heartbeat CPU  0 instructions:  115000000 cycles:  104877380 heartbeat IPC: 0.58151 cumulative IPC: 0.58157 (Simulation time: 0 hr 4 min 58 sec) 
Heartbeat CPU  0 instructions:  116000000 cycles:  106606734 heartbeat IPC: 0.57825 cumulative IPC: 0.58136 (Simulation time: 0 hr 5 min 1 sec) 
Heartbeat CPU  0 instructions:  117000001 cycles:  108325409 heartbeat IPC: 0.58184 cumulative IPC: 0.58139 (Simulation time: 0 hr 5 min 5 sec) 
Heartbeat CPU  0 instructions:  118000000 cycles:  110042245 heartbeat IPC: 0.58247 cumulative IPC: 0.58145 (Simulation time: 0 hr 5 min 8 sec) 
Heartbeat CPU  0 instructions:  119000000 cycles:  111768716 heartbeat IPC: 0.57922 cumulative IPC: 0.58133 (Simulation time: 0 hr 5 min 11 sec) 
Heartbeat CPU  0 instructions:  120000000 cycles:  113485133 heartbeat IPC: 0.58261 cumulative IPC: 0.58140 (Simulation time: 0 hr 5 min 14 sec) 
Heartbeat CPU  0 instructions:  121000003 cycles:  115198071 heartbeat IPC: 0.58379 cumulative IPC: 0.58151 (Simulation time: 0 hr 5 min 17 sec) 
Heartbeat CPU  0 instructions:  122000001 cycles:  116907565 heartbeat IPC: 0.58497 cumulative IPC: 0.58167 (Simulation time: 0 hr 5 min 20 sec) 
Heartbeat CPU  0 instructions:  123000000 cycles:  118632352 heartbeat IPC: 0.57978 cumulative IPC: 0.58158 (Simulation time: 0 hr 5 min 23 sec) 
Heartbeat CPU  0 instructions:  124000000 cycles:  120370768 heartbeat IPC: 0.57524 cumulative IPC: 0.58132 (Simulation time: 0 hr 5 min 26 sec) 
Heartbeat CPU  0 instructions:  125000001 cycles:  122086485 heartbeat IPC: 0.58285 cumulative IPC: 0.58138 (Simulation time: 0 hr 5 min 29 sec) 
Heartbeat CPU  0 instructions:  126000001 cycles:  123811396 heartbeat IPC: 0.57974 cumulative IPC: 0.58131 (Simulation time: 0 hr 5 min 33 sec) 
Heartbeat CPU  0 instructions:  127000003 cycles:  125536592 heartbeat IPC: 0.57965 cumulative IPC: 0.58125 (Simulation time: 0 hr 5 min 36 sec) 
Heartbeat CPU  0 instructions:  128000000 cycles:  127264027 heartbeat IPC: 0.57889 cumulative IPC: 0.58117 (Simulation time: 0 hr 5 min 39 sec) 
Heartbeat CPU  0 instructions:  129000003 cycles:  128982168 heartbeat IPC: 0.58203 cumulative IPC: 0.58120 (Simulation time: 0 hr 5 min 42 sec) 
Heartbeat CPU  0 instructions:  130000001 cycles:  130697108 heartbeat IPC: 0.58311 cumulative IPC: 0.58126 (Simulation time: 0 hr 5 min 45 sec) 
Heartbeat CPU  0 instructions:  131000000 cycles:  132401249 heartbeat IPC: 0.58681 cumulative IPC: 0.58144 (Simulation time: 0 hr 5 min 48 sec) 
Heartbeat CPU  0 instructions:  132000000 cycles:  134131673 heartbeat IPC: 0.57789 cumulative IPC: 0.58133 (Simulation time: 0 hr 5 min 51 sec) 
Heartbeat CPU  0 instructions:  133000000 cycles:  135844394 heartbeat IPC: 0.58387 cumulative IPC: 0.58140 (Simulation time: 0 hr 5 min 54 sec) 
Heartbeat CPU  0 instructions:  134000002 cycles:  137566397 heartbeat IPC: 0.58072 cumulative IPC: 0.58138 (Simulation time: 0 hr 5 min 57 sec) 
Heartbeat CPU  0 instructions:  135000003 cycles:  139297146 heartbeat IPC: 0.57779 cumulative IPC: 0.58128 (Simulation time: 0 hr 6 min 0 sec) 
Heartbeat CPU  0 instructions:  136000000 cycles:  141016378 heartbeat IPC: 0.58165 cumulative IPC: 0.58129 (Simulation time: 0 hr 6 min 4 sec) 
Heartbeat CPU  0 instructions:  137000000 cycles:  142743312 heartbeat IPC: 0.57906 cumulative IPC: 0.58123 (Simulation time: 0 hr 6 min 7 sec) 
Heartbeat CPU  0 instructions:  138000000 cycles:  144459280 heartbeat IPC: 0.58276 cumulative IPC: 0.58127 (Simulation time: 0 hr 6 min 10 sec) 
Heartbeat CPU  0 instructions:  139000002 cycles:  146192468 heartbeat IPC: 0.57697 cumulative IPC: 0.58116 (Simulation time: 0 hr 6 min 13 sec) 
Heartbeat CPU  0 instructions:  140000000 cycles:  147909354 heartbeat IPC: 0.58245 cumulative IPC: 0.58119 (Simulation time: 0 hr 6 min 16 sec) 
Heartbeat CPU  0 instructions:  141000002 cycles:  149623127 heartbeat IPC: 0.58351 cumulative IPC: 0.58125 (Simulation time: 0 hr 6 min 19 sec) 
Heartbeat CPU  0 instructions:  142000000 cycles:  151338660 heartbeat IPC: 0.58291 cumulative IPC: 0.58129 (Simulation time: 0 hr 6 min 22 sec) 
Heartbeat CPU  0 instructions:  143000003 cycles:  153064645 heartbeat IPC: 0.57938 cumulative IPC: 0.58124 (Simulation time: 0 hr 6 min 25 sec) 
Heartbeat CPU  0 instructions:  144000000 cycles:  154783186 heartbeat IPC: 0.58189 cumulative IPC: 0.58126 (Simulation time: 0 hr 6 min 28 sec) 
Heartbeat CPU  0 instructions:  145000003 cycles:  156499878 heartbeat IPC: 0.58252 cumulative IPC: 0.58128 (Simulation time: 0 hr 6 min 31 sec) 
Heartbeat CPU  0 instructions:  146000001 cycles:  158217173 heartbeat IPC: 0.58231 cumulative IPC: 0.58131 (Simulation time: 0 hr 6 min 35 sec) 
Heartbeat CPU  0 instructions:  147000003 cycles:  159934916 heartbeat IPC: 0.58216 cumulative IPC: 0.58133 (Simulation time: 0 hr 6 min 38 sec) 
Heartbeat CPU  0 instructions:  148000000 cycles:  161642707 heartbeat IPC: 0.58555 cumulative IPC: 0.58141 (Simulation time: 0 hr 6 min 41 sec) 
Heartbeat CPU  0 instructions:  149000003 cycles:  163338051 heartbeat IPC: 0.58985 cumulative IPC: 0.58158 (Simulation time: 0 hr 6 min 44 sec) 
Heartbeat CPU  0 instructions:  150000001 cycles:  165030121 heartbeat IPC: 0.59099 cumulative IPC: 0.58177 (Simulation time: 0 hr 6 min 47 sec) 
Heartbeat CPU  0 instructions:  151000003 cycles:  166722893 heartbeat IPC: 0.59075 cumulative IPC: 0.58194 (Simulation time: 0 hr 6 min 50 sec) 
Heartbeat CPU  0 instructions:  152000000 cycles:  168415397 heartbeat IPC: 0.59084 cumulative IPC: 0.58211 (Simulation time: 0 hr 6 min 53 sec) 
Heartbeat CPU  0 instructions:  153000003 cycles:  170102603 heartbeat IPC: 0.59270 cumulative IPC: 0.58231 (Simulation time: 0 hr 6 min 56 sec) 
Heartbeat CPU  0 instructions:  154000001 cycles:  171787182 heartbeat IPC: 0.59362 cumulative IPC: 0.58251 (Simulation time: 0 hr 6 min 59 sec) 
Heartbeat CPU  0 instructions:  155000001 cycles:  173489580 heartbeat IPC: 0.58741 cumulative IPC: 0.58260 (Simulation time: 0 hr 7 min 2 sec) 
Heartbeat CPU  0 instructions:  156000000 cycles:  175189309 heartbeat IPC: 0.58833 cumulative IPC: 0.58270 (Simulation time: 0 hr 7 min 5 sec) 
Heartbeat CPU  0 instructions:  157000001 cycles:  176879234 heartbeat IPC: 0.59174 cumulative IPC: 0.58286 (Simulation time: 0 hr 7 min 9 sec) 
Heartbeat CPU  0 instructions:  158000003 cycles:  178570994 heartbeat IPC: 0.59110 cumulative IPC: 0.58300 (Simulation time: 0 hr 7 min 12 sec) 
Heartbeat CPU  0 instructions:  159000003 cycles:  180262098 heartbeat IPC: 0.59133 cumulative IPC: 0.58314 (Simulation time: 0 hr 7 min 15 sec) 
Heartbeat CPU  0 instructions:  160000000 cycles:  181949006 heartbeat IPC: 0.59280 cumulative IPC: 0.58330 (Simulation time: 0 hr 7 min 18 sec) 
Heartbeat CPU  0 instructions:  161000002 cycles:  183642275 heartbeat IPC: 0.59057 cumulative IPC: 0.58341 (Simulation time: 0 hr 7 min 21 sec) 
Heartbeat CPU  0 instructions:  162000000 cycles:  185335101 heartbeat IPC: 0.59073 cumulative IPC: 0.58353 (Simulation time: 0 hr 7 min 24 sec) 
Heartbeat CPU  0 instructions:  163000000 cycles:  187026358 heartbeat IPC: 0.59128 cumulative IPC: 0.58365 (Simulation time: 0 hr 7 min 27 sec) 
Heartbeat CPU  0 instructions:  164000000 cycles:  188722832 heartbeat IPC: 0.58946 cumulative IPC: 0.58374 (Simulation time: 0 hr 7 min 30 sec) 
Heartbeat CPU  0 instructions:  165000002 cycles:  190412700 heartbeat IPC: 0.59176 cumulative IPC: 0.58386 (Simulation time: 0 hr 7 min 33 sec) 
Heartbeat CPU  0 instructions:  166000003 cycles:  192101646 heartbeat IPC: 0.59209 cumulative IPC: 0.58399 (Simulation time: 0 hr 7 min 36 sec) 
Heartbeat CPU  0 instructions:  167000002 cycles:  193793524 heartbeat IPC: 0.59106 cumulative IPC: 0.58409 (Simulation time: 0 hr 7 min 39 sec) 
Heartbeat CPU  0 instructions:  168000000 cycles:  195484172 heartbeat IPC: 0.59149 cumulative IPC: 0.58420 (Simulation time: 0 hr 7 min 42 sec) 
Heartbeat CPU  0 instructions:  169000001 cycles:  197180716 heartbeat IPC: 0.58943 cumulative IPC: 0.58427 (Simulation time: 0 hr 7 min 45 sec) 
Heartbeat CPU  0 instructions:  170000000 cycles:  198873346 heartbeat IPC: 0.59080 cumulative IPC: 0.58436 (Simulation time: 0 hr 7 min 49 sec) 
Heartbeat CPU  0 instructions:  171000003 cycles:  200569834 heartbeat IPC: 0.58945 cumulative IPC: 0.58444 (Simulation time: 0 hr 7 min 52 sec) 
Heartbeat CPU  0 instructions:  172000000 cycles:  202255027 heartbeat IPC: 0.59340 cumulative IPC: 0.58456 (Simulation time: 0 hr 7 min 55 sec) 
Heartbeat CPU  0 instructions:  173000000 cycles:  203951483 heartbeat IPC: 0.58946 cumulative IPC: 0.58463 (Simulation time: 0 hr 7 min 58 sec) 
Heartbeat CPU  0 instructions:  174000001 cycles:  205643122 heartbeat IPC: 0.59114 cumulative IPC: 0.58471 (Simulation time: 0 hr 8 min 1 sec) 
Heartbeat CPU  0 instructions:  175000003 cycles:  207329127 heartbeat IPC: 0.59312 cumulative IPC: 0.58482 (Simulation time: 0 hr 8 min 4 sec) 
Heartbeat CPU  0 instructions:  176000000 cycles:  209019499 heartbeat IPC: 0.59158 cumulative IPC: 0.58491 (Simulation time: 0 hr 8 min 7 sec) 
Heartbeat CPU  0 instructions:  177000003 cycles:  210714561 heartbeat IPC: 0.58995 cumulative IPC: 0.58498 (Simulation time: 0 hr 8 min 10 sec) 
Heartbeat CPU  0 instructions:  178000001 cycles:  212399964 heartbeat IPC: 0.59333 cumulative IPC: 0.58508 (Simulation time: 0 hr 8 min 13 sec) 
Heartbeat CPU  0 instructions:  179000000 cycles:  214090438 heartbeat IPC: 0.59155 cumulative IPC: 0.58516 (Simulation time: 0 hr 8 min 16 sec) 
Heartbeat CPU  0 instructions:  180000000 cycles:  215782273 heartbeat IPC: 0.59107 cumulative IPC: 0.58524 (Simulation time: 0 hr 8 min 19 sec) 
Heartbeat CPU  0 instructions:  181000000 cycles:  217463726 heartbeat IPC: 0.59472 cumulative IPC: 0.58535 (Simulation time: 0 hr 8 min 22 sec) 
Heartbeat CPU  0 instructions:  182000001 cycles:  219162837 heartbeat IPC: 0.58854 cumulative IPC: 0.58539 (Simulation time: 0 hr 8 min 25 sec) 
Heartbeat CPU  0 instructions:  183000002 cycles:  220855797 heartbeat IPC: 0.59068 cumulative IPC: 0.58545 (Simulation time: 0 hr 8 min 29 sec) 
Heartbeat CPU  0 instructions:  184000000 cycles:  222539677 heartbeat IPC: 0.59387 cumulative IPC: 0.58555 (Simulation time: 0 hr 8 min 32 sec) 
Heartbeat CPU  0 instructions:  185000001 cycles:  224228152 heartbeat IPC: 0.59225 cumulative IPC: 0.58563 (Simulation time: 0 hr 8 min 35 sec) 
Heartbeat CPU  0 instructions:  186000000 cycles:  225926292 heartbeat IPC: 0.58888 cumulative IPC: 0.58567 (Simulation time: 0 hr 8 min 38 sec) 
Heartbeat CPU  0 instructions:  187000000 cycles:  227526487 heartbeat IPC: 0.62492 cumulative IPC: 0.58609 (Simulation time: 0 hr 8 min 41 sec) 
Heartbeat CPU  0 instructions:  188000000 cycles:  228991970 heartbeat IPC: 0.68237 cumulative IPC: 0.58703 (Simulation time: 0 hr 8 min 44 sec) 
Heartbeat CPU  0 instructions:  189000002 cycles:  230452659 heartbeat IPC: 0.68461 cumulative IPC: 0.58797 (Simulation time: 0 hr 8 min 47 sec) 
Heartbeat CPU  0 instructions:  190000003 cycles:  231929805 heartbeat IPC: 0.67698 cumulative IPC: 0.58883 (Simulation time: 0 hr 8 min 50 sec) 
Heartbeat CPU  0 instructions:  191000000 cycles:  233398418 heartbeat IPC: 0.68091 cumulative IPC: 0.58971 (Simulation time: 0 hr 8 min 53 sec) 
Heartbeat CPU  0 instructions:  192000000 cycles:  234859387 heartbeat IPC: 0.68448 cumulative IPC: 0.59060 (Simulation time: 0 hr 8 min 56 sec) 
Heartbeat CPU  0 instructions:  193000001 cycles:  236332617 heartbeat IPC: 0.67878 cumulative IPC: 0.59142 (Simulation time: 0 hr 8 min 59 sec) 
Heartbeat CPU  0 instructions:  194000000 cycles:  237804499 heartbeat IPC: 0.67940 cumulative IPC: 0.59224 (Simulation time: 0 hr 9 min 2 sec) 
Heartbeat CPU  0 instructions:  195000000 cycles:  239276199 heartbeat IPC: 0.67949 cumulative IPC: 0.59304 (Simulation time: 0 hr 9 min 5 sec) 
Heartbeat CPU  0 instructions:  196000000 cycles:  240759595 heartbeat IPC: 0.67413 cumulative IPC: 0.59379 (Simulation time: 0 hr 9 min 8 sec) 
Heartbeat CPU  0 instructions:  197000000 cycles:  242206717 heartbeat IPC: 0.69103 cumulative IPC: 0.59465 (Simulation time: 0 hr 9 min 11 sec) 
Heartbeat CPU  0 instructions:  198000003 cycles:  243678152 heartbeat IPC: 0.67961 cumulative IPC: 0.59541 (Simulation time: 0 hr 9 min 14 sec) 
Heartbeat CPU  0 instructions:  199000001 cycles:  245159291 heartbeat IPC: 0.67515 cumulative IPC: 0.59612 (Simulation time: 0 hr 9 min 17 sec) 
Heartbeat CPU  0 instructions:  200000000 cycles:  246622229 heartbeat IPC: 0.68356 cumulative IPC: 0.59688 (Simulation time: 0 hr 9 min 20 sec) 
Heartbeat CPU  0 instructions:  201000003 cycles:  248099043 heartbeat IPC: 0.67714 cumulative IPC: 0.59758 (Simulation time: 0 hr 9 min 23 sec) 
Heartbeat CPU  0 instructions:  202000000 cycles:  249590705 heartbeat IPC: 0.67039 cumulative IPC: 0.59822 (Simulation time: 0 hr 9 min 26 sec) 
Heartbeat CPU  0 instructions:  203000001 cycles:  251064670 heartbeat IPC: 0.67844 cumulative IPC: 0.59891 (Simulation time: 0 hr 9 min 29 sec) 
Heartbeat CPU  0 instructions:  204000000 cycles:  252540163 heartbeat IPC: 0.67774 cumulative IPC: 0.59958 (Simulation time: 0 hr 9 min 33 sec) 
Heartbeat CPU  0 instructions:  205000000 cycles:  254023274 heartbeat IPC: 0.67426 cumulative IPC: 0.60021 (Simulation time: 0 hr 9 min 36 sec) 
Heartbeat CPU  0 instructions:  206000002 cycles:  255476401 heartbeat IPC: 0.68817 cumulative IPC: 0.60094 (Simulation time: 0 hr 9 min 39 sec) 
Heartbeat CPU  0 instructions:  207000000 cycles:  256957555 heartbeat IPC: 0.67515 cumulative IPC: 0.60155 (Simulation time: 0 hr 9 min 42 sec) 
Heartbeat CPU  0 instructions:  208000000 cycles:  258438243 heartbeat IPC: 0.67536 cumulative IPC: 0.60216 (Simulation time: 0 hr 9 min 45 sec) 
Heartbeat CPU  0 instructions:  209000003 cycles:  259894672 heartbeat IPC: 0.68661 cumulative IPC: 0.60284 (Simulation time: 0 hr 9 min 48 sec) 
Heartbeat CPU  0 instructions:  210000000 cycles:  261393728 heartbeat IPC: 0.66708 cumulative IPC: 0.60337 (Simulation time: 0 hr 9 min 51 sec) 
Heartbeat CPU  0 instructions:  211000003 cycles:  262858518 heartbeat IPC: 0.68269 cumulative IPC: 0.60400 (Simulation time: 0 hr 9 min 54 sec) 
Heartbeat CPU  0 instructions:  212000000 cycles:  264343296 heartbeat IPC: 0.67350 cumulative IPC: 0.60456 (Simulation time: 0 hr 9 min 57 sec) 
Heartbeat CPU  0 instructions:  213000003 cycles:  265833252 heartbeat IPC: 0.67116 cumulative IPC: 0.60509 (Simulation time: 0 hr 10 min 0 sec) 
Heartbeat CPU  0 instructions:  214000000 cycles:  267316855 heartbeat IPC: 0.67403 cumulative IPC: 0.60564 (Simulation time: 0 hr 10 min 3 sec) 
Heartbeat CPU  0 instructions:  215000002 cycles:  268770962 heartbeat IPC: 0.68771 cumulative IPC: 0.60627 (Simulation time: 0 hr 10 min 6 sec) 
Heartbeat CPU  0 instructions:  216000000 cycles:  270253922 heartbeat IPC: 0.67433 cumulative IPC: 0.60679 (Simulation time: 0 hr 10 min 9 sec) 
Heartbeat CPU  0 instructions:  217000001 cycles:  271711876 heartbeat IPC: 0.68589 cumulative IPC: 0.60739 (Simulation time: 0 hr 10 min 12 sec) 
Heartbeat CPU  0 instructions:  218000000 cycles:  273173353 heartbeat IPC: 0.68424 cumulative IPC: 0.60797 (Simulation time: 0 hr 10 min 15 sec) 
Heartbeat CPU  0 instructions:  219000000 cycles:  274654138 heartbeat IPC: 0.67532 cumulative IPC: 0.60848 (Simulation time: 0 hr 10 min 18 sec) 
Heartbeat CPU  0 instructions:  220000000 cycles:  276115562 heartbeat IPC: 0.68426 cumulative IPC: 0.60904 (Simulation time: 0 hr 10 min 21 sec) 
Heartbeat CPU  0 instructions:  221000000 cycles:  277593341 heartbeat IPC: 0.67669 cumulative IPC: 0.60955 (Simulation time: 0 hr 10 min 24 sec) 
Heartbeat CPU  0 instructions:  222000000 cycles:  279068688 heartbeat IPC: 0.67781 cumulative IPC: 0.61005 (Simulation time: 0 hr 10 min 27 sec) 
Heartbeat CPU  0 instructions:  223000003 cycles:  280521656 heartbeat IPC: 0.68825 cumulative IPC: 0.61061 (Simulation time: 0 hr 10 min 30 sec) 
Heartbeat CPU  0 instructions:  224000000 cycles:  282028033 heartbeat IPC: 0.66384 cumulative IPC: 0.61101 (Simulation time: 0 hr 10 min 33 sec) 
Heartbeat CPU  0 instructions:  225000001 cycles:  283501256 heartbeat IPC: 0.67878 cumulative IPC: 0.61150 (Simulation time: 0 hr 10 min 36 sec) 
Heartbeat CPU  0 instructions:  226000002 cycles:  284970844 heartbeat IPC: 0.68046 cumulative IPC: 0.61199 (Simulation time: 0 hr 10 min 39 sec) 
Heartbeat CPU  0 instructions:  227000003 cycles:  286446415 heartbeat IPC: 0.67770 cumulative IPC: 0.61246 (Simulation time: 0 hr 10 min 42 sec) 
Heartbeat CPU  0 instructions:  228000000 cycles:  287920813 heartbeat IPC: 0.67824 cumulative IPC: 0.61292 (Simulation time: 0 hr 10 min 45 sec) 
Heartbeat CPU  0 instructions:  229000000 cycles:  289375816 heartbeat IPC: 0.68728 cumulative IPC: 0.61344 (Simulation time: 0 hr 10 min 48 sec) 
Heartbeat CPU  0 instructions:  230000003 cycles:  290853618 heartbeat IPC: 0.67668 cumulative IPC: 0.61388 (Simulation time: 0 hr 10 min 51 sec) 
Heartbeat CPU  0 instructions:  231000000 cycles:  292308137 heartbeat IPC: 0.68751 cumulative IPC: 0.61438 (Simulation time: 0 hr 10 min 54 sec) 
Heartbeat CPU  0 instructions:  232000000 cycles:  293771562 heartbeat IPC: 0.68333 cumulative IPC: 0.61485 (Simulation time: 0 hr 10 min 57 sec) 
Heartbeat CPU  0 instructions:  233000003 cycles:  295255137 heartbeat IPC: 0.67405 cumulative IPC: 0.61526 (Simulation time: 0 hr 11 min 0 sec) 
Heartbeat CPU  0 instructions:  234000002 cycles:  296703657 heartbeat IPC: 0.69036 cumulative IPC: 0.61576 (Simulation time: 0 hr 11 min 3 sec) 
Heartbeat CPU  0 instructions:  235000001 cycles:  298181028 heartbeat IPC: 0.67688 cumulative IPC: 0.61617 (Simulation time: 0 hr 11 min 6 sec) 
Heartbeat CPU  0 instructions:  236000000 cycles:  299670811 heartbeat IPC: 0.67124 cumulative IPC: 0.61654 (Simulation time: 0 hr 11 min 10 sec) 
Heartbeat CPU  0 instructions:  237000002 cycles:  301128467 heartbeat IPC: 0.68603 cumulative IPC: 0.61700 (Simulation time: 0 hr 11 min 13 sec) 
Heartbeat CPU  0 instructions:  238000000 cycles:  302632948 heartbeat IPC: 0.66468 cumulative IPC: 0.61732 (Simulation time: 0 hr 11 min 16 sec) 
Heartbeat CPU  0 instructions:  239000000 cycles:  304138474 heartbeat IPC: 0.66422 cumulative IPC: 0.61763 (Simulation time: 0 hr 11 min 19 sec) 
Heartbeat CPU  0 instructions:  240000000 cycles:  305580405 heartbeat IPC: 0.69351 cumulative IPC: 0.61811 (Simulation time: 0 hr 11 min 22 sec) 
Heartbeat CPU  0 instructions:  241000002 cycles:  307060330 heartbeat IPC: 0.67571 cumulative IPC: 0.61849 (Simulation time: 0 hr 11 min 25 sec) 
Heartbeat CPU  0 instructions:  242000000 cycles:  308537052 heartbeat IPC: 0.67717 cumulative IPC: 0.61887 (Simulation time: 0 hr 11 min 28 sec) 
Heartbeat CPU  0 instructions:  243000003 cycles:  309985581 heartbeat IPC: 0.69036 cumulative IPC: 0.61931 (Simulation time: 0 hr 11 min 31 sec) 
Heartbeat CPU  0 instructions:  244000000 cycles:  311453970 heartbeat IPC: 0.68102 cumulative IPC: 0.61970 (Simulation time: 0 hr 11 min 34 sec) 
Heartbeat CPU  0 instructions:  245000002 cycles:  312908240 heartbeat IPC: 0.68763 cumulative IPC: 0.62013 (Simulation time: 0 hr 11 min 37 sec) 
Heartbeat CPU  0 instructions:  246000003 cycles:  314364588 heartbeat IPC: 0.68665 cumulative IPC: 0.62054 (Simulation time: 0 hr 11 min 40 sec) 
Heartbeat CPU  0 instructions:  247000002 cycles:  315839108 heartbeat IPC: 0.67819 cumulative IPC: 0.62090 (Simulation time: 0 hr 11 min 43 sec) 
Heartbeat CPU  0 instructions:  248000000 cycles:  317287432 heartbeat IPC: 0.69045 cumulative IPC: 0.62132 (Simulation time: 0 hr 11 min 46 sec) 
Heartbeat CPU  0 instructions:  249000002 cycles:  318782108 heartbeat IPC: 0.66904 cumulative IPC: 0.62162 (Simulation time: 0 hr 11 min 49 sec) 
Heartbeat CPU  0 instructions:  250000003 cycles:  320264820 heartbeat IPC: 0.67444 cumulative IPC: 0.62194 (Simulation time: 0 hr 11 min 52 sec) 
Heartbeat CPU  0 instructions:  251000001 cycles:  321732440 heartbeat IPC: 0.68137 cumulative IPC: 0.62230 (Simulation time: 0 hr 11 min 55 sec) 
Heartbeat CPU  0 instructions:  252000000 cycles:  323203948 heartbeat IPC: 0.67957 cumulative IPC: 0.62265 (Simulation time: 0 hr 11 min 58 sec) 
Heartbeat CPU  0 instructions:  253000000 cycles:  324711118 heartbeat IPC: 0.66350 cumulative IPC: 0.62290 (Simulation time: 0 hr 12 min 1 sec) 
Heartbeat CPU  0 instructions:  254000003 cycles:  326149862 heartbeat IPC: 0.69505 cumulative IPC: 0.62332 (Simulation time: 0 hr 12 min 4 sec) 
Heartbeat CPU  0 instructions:  255000000 cycles:  327614975 heartbeat IPC: 0.68254 cumulative IPC: 0.62367 (Simulation time: 0 hr 12 min 7 sec) 
Heartbeat CPU  0 instructions:  256000000 cycles:  329102604 heartbeat IPC: 0.67221 cumulative IPC: 0.62396 (Simulation time: 0 hr 12 min 10 sec) 
Heartbeat CPU  0 instructions:  257000003 cycles:  330562545 heartbeat IPC: 0.68496 cumulative IPC: 0.62431 (Simulation time: 0 hr 12 min 13 sec) 
Heartbeat CPU  0 instructions:  258000003 cycles:  332031007 heartbeat IPC: 0.68098 cumulative IPC: 0.62464 (Simulation time: 0 hr 12 min 16 sec) 
Heartbeat CPU  0 instructions:  259000002 cycles:  333484538 heartbeat IPC: 0.68798 cumulative IPC: 0.62500 (Simulation time: 0 hr 12 min 19 sec) 
Heartbeat CPU  0 instructions:  260000000 cycles:  334941315 heartbeat IPC: 0.68645 cumulative IPC: 0.62535 (Simulation time: 0 hr 12 min 22 sec) 
Heartbeat CPU  0 instructions:  261000000 cycles:  336422620 heartbeat IPC: 0.67508 cumulative IPC: 0.62564 (Simulation time: 0 hr 12 min 25 sec) 
Heartbeat CPU  0 instructions:  262000001 cycles:  337888170 heartbeat IPC: 0.68234 cumulative IPC: 0.62596 (Simulation time: 0 hr 12 min 28 sec) 
Heartbeat CPU  0 instructions:  263000002 cycles:  339374328 heartbeat IPC: 0.67288 cumulative IPC: 0.62623 (Simulation time: 0 hr 12 min 31 sec) 
Heartbeat CPU  0 instructions:  264000000 cycles:  340866962 heartbeat IPC: 0.66996 cumulative IPC: 0.62648 (Simulation time: 0 hr 12 min 34 sec) 
Heartbeat CPU  0 instructions:  265000003 cycles:  342342941 heartbeat IPC: 0.67752 cumulative IPC: 0.62676 (Simulation time: 0 hr 12 min 37 sec) 
Heartbeat CPU  0 instructions:  266000002 cycles:  343810553 heartbeat IPC: 0.68138 cumulative IPC: 0.62706 (Simulation time: 0 hr 12 min 40 sec) 
Heartbeat CPU  0 instructions:  267000003 cycles:  345323274 heartbeat IPC: 0.66106 cumulative IPC: 0.62726 (Simulation time: 0 hr 12 min 43 sec) 
Heartbeat CPU  0 instructions:  268000000 cycles:  346774741 heartbeat IPC: 0.68896 cumulative IPC: 0.62759 (Simulation time: 0 hr 12 min 47 sec) 
Heartbeat CPU  0 instructions:  269000002 cycles:  348240174 heartbeat IPC: 0.68239 cumulative IPC: 0.62789 (Simulation time: 0 hr 12 min 50 sec) 
Heartbeat CPU  0 instructions:  270000001 cycles:  349727615 heartbeat IPC: 0.67229 cumulative IPC: 0.62813 (Simulation time: 0 hr 12 min 53 sec) 
Heartbeat CPU  0 instructions:  271000000 cycles:  351166189 heartbeat IPC: 0.69513 cumulative IPC: 0.62849 (Simulation time: 0 hr 12 min 56 sec) 
Heartbeat CPU  0 instructions:  272000000 cycles:  352634160 heartbeat IPC: 0.68121 cumulative IPC: 0.62877 (Simulation time: 0 hr 12 min 59 sec) 
Heartbeat CPU  0 instructions:  273000001 cycles:  354114596 heartbeat IPC: 0.67548 cumulative IPC: 0.62902 (Simulation time: 0 hr 13 min 2 sec) 
Heartbeat CPU  0 instructions:  274000000 cycles:  355577714 heartbeat IPC: 0.68347 cumulative IPC: 0.62931 (Simulation time: 0 hr 13 min 5 sec) 
Heartbeat CPU  0 instructions:  275000002 cycles:  357062240 heartbeat IPC: 0.67362 cumulative IPC: 0.62955 (Simulation time: 0 hr 13 min 8 sec) 
Heartbeat CPU  0 instructions:  276000000 cycles:  358533829 heartbeat IPC: 0.67954 cumulative IPC: 0.62981 (Simulation time: 0 hr 13 min 11 sec) 
Heartbeat CPU  0 instructions:  277000001 cycles:  360009533 heartbeat IPC: 0.67764 cumulative IPC: 0.63006 (Simulation time: 0 hr 13 min 14 sec) 
Heartbeat CPU  0 instructions:  278000003 cycles:  361492750 heartbeat IPC: 0.67421 cumulative IPC: 0.63029 (Simulation time: 0 hr 13 min 17 sec) 
Heartbeat CPU  0 instructions:  279000002 cycles:  362948503 heartbeat IPC: 0.68693 cumulative IPC: 0.63059 (Simulation time: 0 hr 13 min 20 sec) 
Heartbeat CPU  0 instructions:  280000000 cycles:  364402102 heartbeat IPC: 0.68795 cumulative IPC: 0.63088 (Simulation time: 0 hr 13 min 23 sec) 
Heartbeat CPU  0 instructions:  281000001 cycles:  365896175 heartbeat IPC: 0.66931 cumulative IPC: 0.63108 (Simulation time: 0 hr 13 min 26 sec) 
Heartbeat CPU  0 instructions:  282000002 cycles:  367352642 heartbeat IPC: 0.68659 cumulative IPC: 0.63136 (Simulation time: 0 hr 13 min 29 sec) 
Heartbeat CPU  0 instructions:  283000001 cycles:  368815200 heartbeat IPC: 0.68373 cumulative IPC: 0.63162 (Simulation time: 0 hr 13 min 32 sec) 
Heartbeat CPU  0 instructions:  284000000 cycles:  370297503 heartbeat IPC: 0.67463 cumulative IPC: 0.63184 (Simulation time: 0 hr 13 min 35 sec) 
Heartbeat CPU  0 instructions:  285000001 cycles:  371748916 heartbeat IPC: 0.68898 cumulative IPC: 0.63212 (Simulation time: 0 hr 13 min 38 sec) 
Heartbeat CPU  0 instructions:  286000002 cycles:  373222601 heartbeat IPC: 0.67857 cumulative IPC: 0.63236 (Simulation time: 0 hr 13 min 41 sec) 
Heartbeat CPU  0 instructions:  287000000 cycles:  374698678 heartbeat IPC: 0.67747 cumulative IPC: 0.63258 (Simulation time: 0 hr 13 min 44 sec) 
Heartbeat CPU  0 instructions:  288000000 cycles:  376162942 heartbeat IPC: 0.68294 cumulative IPC: 0.63283 (Simulation time: 0 hr 13 min 47 sec) 
Heartbeat CPU  0 instructions:  289000003 cycles:  377623164 heartbeat IPC: 0.68483 cumulative IPC: 0.63309 (Simulation time: 0 hr 13 min 50 sec) 
Heartbeat CPU  0 instructions:  290000000 cycles:  379102631 heartbeat IPC: 0.67592 cumulative IPC: 0.63330 (Simulation time: 0 hr 13 min 53 sec) 
Heartbeat CPU  0 instructions:  291000000 cycles:  380554036 heartbeat IPC: 0.68899 cumulative IPC: 0.63356 (Simulation time: 0 hr 13 min 56 sec) 
Heartbeat CPU  0 instructions:  292000000 cycles:  382063874 heartbeat IPC: 0.66232 cumulative IPC: 0.63371 (Simulation time: 0 hr 13 min 59 sec) 
Heartbeat CPU  0 instructions:  293000003 cycles:  383544117 heartbeat IPC: 0.67557 cumulative IPC: 0.63391 (Simulation time: 0 hr 14 min 2 sec) 
Heartbeat CPU  0 instructions:  294000000 cycles:  384993625 heartbeat IPC: 0.68989 cumulative IPC: 0.63418 (Simulation time: 0 hr 14 min 5 sec) 
Heartbeat CPU  0 instructions:  295000001 cycles:  386488662 heartbeat IPC: 0.66888 cumulative IPC: 0.63435 (Simulation time: 0 hr 14 min 8 sec) 
Heartbeat CPU  0 instructions:  296000000 cycles:  387948447 heartbeat IPC: 0.68503 cumulative IPC: 0.63458 (Simulation time: 0 hr 14 min 11 sec) 
Heartbeat CPU  0 instructions:  297000003 cycles:  389404842 heartbeat IPC: 0.68663 cumulative IPC: 0.63483 (Simulation time: 0 hr 14 min 14 sec) 
Heartbeat CPU  0 instructions:  298000000 cycles:  390892309 heartbeat IPC: 0.67228 cumulative IPC: 0.63501 (Simulation time: 0 hr 14 min 17 sec) 
Heartbeat CPU  0 instructions:  299000001 cycles:  392364663 heartbeat IPC: 0.67919 cumulative IPC: 0.63522 (Simulation time: 0 hr 14 min 20 sec) 
Heartbeat CPU  0 instructions:  300000000 cycles:  393837360 heartbeat IPC: 0.67903 cumulative IPC: 0.63542 (Simulation time: 0 hr 14 min 24 sec) 
Heartbeat CPU  0 instructions:  301000002 cycles:  395326610 heartbeat IPC: 0.67148 cumulative IPC: 0.63559 (Simulation time: 0 hr 14 min 27 sec) 
Heartbeat CPU  0 instructions:  302000001 cycles:  396811895 heartbeat IPC: 0.67327 cumulative IPC: 0.63577 (Simulation time: 0 hr 14 min 30 sec) 
Heartbeat CPU  0 instructions:  303000002 cycles:  398278795 heartbeat IPC: 0.68171 cumulative IPC: 0.63598 (Simulation time: 0 hr 14 min 33 sec) 
Heartbeat CPU  0 instructions:  304000000 cycles:  399771054 heartbeat IPC: 0.67012 cumulative IPC: 0.63614 (Simulation time: 0 hr 14 min 36 sec) 
Heartbeat CPU  0 instructions:  305000001 cycles:  401216505 heartbeat IPC: 0.69183 cumulative IPC: 0.63639 (Simulation time: 0 hr 14 min 39 sec) 
Heartbeat CPU  0 instructions:  306000000 cycles:  402689778 heartbeat IPC: 0.67876 cumulative IPC: 0.63658 (Simulation time: 0 hr 14 min 42 sec) 
Heartbeat CPU  0 instructions:  307000000 cycles:  404118411 heartbeat IPC: 0.69997 cumulative IPC: 0.63686 (Simulation time: 0 hr 14 min 45 sec) 
Heartbeat CPU  0 instructions:  308000000 cycles:  405250286 heartbeat IPC: 0.88349 cumulative IPC: 0.63771 (Simulation time: 0 hr 14 min 47 sec) 
Heartbeat CPU  0 instructions:  309000002 cycles:  406381803 heartbeat IPC: 0.88377 cumulative IPC: 0.63856 (Simulation time: 0 hr 14 min 50 sec) 
Heartbeat CPU  0 instructions:  310000000 cycles:  407509265 heartbeat IPC: 0.88695 cumulative IPC: 0.63942 (Simulation time: 0 hr 14 min 53 sec) 
Heartbeat CPU  0 instructions:  311000002 cycles:  408905652 heartbeat IPC: 0.71614 cumulative IPC: 0.63974 (Simulation time: 0 hr 14 min 56 sec) 
Heartbeat CPU  0 instructions:  312000000 cycles:  410416246 heartbeat IPC: 0.66199 cumulative IPC: 0.63984 (Simulation time: 0 hr 14 min 59 sec) 
Heartbeat CPU  0 instructions:  313000003 cycles:  411852304 heartbeat IPC: 0.69635 cumulative IPC: 0.64009 (Simulation time: 0 hr 15 min 2 sec) 
Heartbeat CPU  0 instructions:  314000000 cycles:  413372434 heartbeat IPC: 0.65784 cumulative IPC: 0.64017 (Simulation time: 0 hr 15 min 5 sec) 
Heartbeat CPU  0 instructions:  315000003 cycles:  414836998 heartbeat IPC: 0.68280 cumulative IPC: 0.64035 (Simulation time: 0 hr 15 min 8 sec) 
Heartbeat CPU  0 instructions:  316000000 cycles:  416310350 heartbeat IPC: 0.67872 cumulative IPC: 0.64052 (Simulation time: 0 hr 15 min 11 sec) 
Heartbeat CPU  0 instructions:  317000001 cycles:  417792768 heartbeat IPC: 0.67457 cumulative IPC: 0.64067 (Simulation time: 0 hr 15 min 14 sec) 
Heartbeat CPU  0 instructions:  318000000 cycles:  419261682 heartbeat IPC: 0.68077 cumulative IPC: 0.64084 (Simulation time: 0 hr 15 min 17 sec) 
Heartbeat CPU  0 instructions:  319000000 cycles:  420749518 heartbeat IPC: 0.67212 cumulative IPC: 0.64098 (Simulation time: 0 hr 15 min 20 sec) 
Heartbeat CPU  0 instructions:  320000000 cycles:  422219785 heartbeat IPC: 0.68015 cumulative IPC: 0.64115 (Simulation time: 0 hr 15 min 23 sec) 
Heartbeat CPU  0 instructions:  321000000 cycles:  423692807 heartbeat IPC: 0.67888 cumulative IPC: 0.64131 (Simulation time: 0 hr 15 min 26 sec) 
Heartbeat CPU  0 instructions:  322000003 cycles:  425175718 heartbeat IPC: 0.67435 cumulative IPC: 0.64145 (Simulation time: 0 hr 15 min 29 sec) 
Heartbeat CPU  0 instructions:  323000003 cycles:  426624028 heartbeat IPC: 0.69046 cumulative IPC: 0.64165 (Simulation time: 0 hr 15 min 32 sec) 
Heartbeat CPU  0 instructions:  324000000 cycles:  428129523 heartbeat IPC: 0.66423 cumulative IPC: 0.64175 (Simulation time: 0 hr 15 min 35 sec) 
Heartbeat CPU  0 instructions:  325000003 cycles:  429579783 heartbeat IPC: 0.68953 cumulative IPC: 0.64195 (Simulation time: 0 hr 15 min 38 sec) 
Heartbeat CPU  0 instructions:  326000000 cycles:  431074087 heartbeat IPC: 0.66921 cumulative IPC: 0.64207 (Simulation time: 0 hr 15 min 41 sec) 
Heartbeat CPU  0 instructions:  327000001 cycles:  432580737 heartbeat IPC: 0.66372 cumulative IPC: 0.64216 (Simulation time: 0 hr 15 min 44 sec) 
Heartbeat CPU  0 instructions:  328000000 cycles:  434032558 heartbeat IPC: 0.68879 cumulative IPC: 0.64235 (Simulation time: 0 hr 15 min 47 sec) 
Heartbeat CPU  0 instructions:  329000002 cycles:  435525252 heartbeat IPC: 0.66993 cumulative IPC: 0.64246 (Simulation time: 0 hr 15 min 50 sec) 
Heartbeat CPU  0 instructions:  330000003 cycles:  436987986 heartbeat IPC: 0.68365 cumulative IPC: 0.64263 (Simulation time: 0 hr 15 min 53 sec) 
Heartbeat CPU  0 instructions:  331000003 cycles:  438458856 heartbeat IPC: 0.67987 cumulative IPC: 0.64278 (Simulation time: 0 hr 15 min 56 sec) 
Heartbeat CPU  0 instructions:  332000000 cycles:  439935772 heartbeat IPC: 0.67708 cumulative IPC: 0.64293 (Simulation time: 0 hr 15 min 59 sec) 
Heartbeat CPU  0 instructions:  333000003 cycles:  441400395 heartbeat IPC: 0.68277 cumulative IPC: 0.64309 (Simulation time: 0 hr 16 min 2 sec) 
Heartbeat CPU  0 instructions:  334000000 cycles:  442886683 heartbeat IPC: 0.67282 cumulative IPC: 0.64321 (Simulation time: 0 hr 16 min 6 sec) 
Heartbeat CPU  0 instructions:  335000002 cycles:  444351860 heartbeat IPC: 0.68251 cumulative IPC: 0.64337 (Simulation time: 0 hr 16 min 9 sec) 
Heartbeat CPU  0 instructions:  336000000 cycles:  445837626 heartbeat IPC: 0.67305 cumulative IPC: 0.64349 (Simulation time: 0 hr 16 min 12 sec) 
Heartbeat CPU  0 instructions:  337000000 cycles:  447304601 heartbeat IPC: 0.68167 cumulative IPC: 0.64364 (Simulation time: 0 hr 16 min 15 sec) 
Heartbeat CPU  0 instructions:  338000002 cycles:  448766655 heartbeat IPC: 0.68397 cumulative IPC: 0.64380 (Simulation time: 0 hr 16 min 18 sec) 
Heartbeat CPU  0 instructions:  339000001 cycles:  450271089 heartbeat IPC: 0.66470 cumulative IPC: 0.64388 (Simulation time: 0 hr 16 min 21 sec) 
Heartbeat CPU  0 instructions:  340000000 cycles:  451724030 heartbeat IPC: 0.68826 cumulative IPC: 0.64406 (Simulation time: 0 hr 16 min 24 sec) 
Heartbeat CPU  0 instructions:  341000002 cycles:  453197970 heartbeat IPC: 0.67846 cumulative IPC: 0.64419 (Simulation time: 0 hr 16 min 27 sec) 
Heartbeat CPU  0 instructions:  342000003 cycles:  454675981 heartbeat IPC: 0.67659 cumulative IPC: 0.64432 (Simulation time: 0 hr 16 min 30 sec) 
Heartbeat CPU  0 instructions:  343000000 cycles:  456137033 heartbeat IPC: 0.68444 cumulative IPC: 0.64447 (Simulation time: 0 hr 16 min 33 sec) 
Heartbeat CPU  0 instructions:  344000000 cycles:  457619752 heartbeat IPC: 0.67444 cumulative IPC: 0.64459 (Simulation time: 0 hr 16 min 36 sec) 
Heartbeat CPU  0 instructions:  345000003 cycles:  459101301 heartbeat IPC: 0.67497 cumulative IPC: 0.64471 (Simulation time: 0 hr 16 min 39 sec) 
Heartbeat CPU  0 instructions:  346000000 cycles:  460574222 heartbeat IPC: 0.67892 cumulative IPC: 0.64484 (Simulation time: 0 hr 16 min 42 sec) 
Heartbeat CPU  0 instructions:  347000003 cycles:  462048193 heartbeat IPC: 0.67844 cumulative IPC: 0.64497 (Simulation time: 0 hr 16 min 45 sec) 
Heartbeat CPU  0 instructions:  348000000 cycles:  463506092 heartbeat IPC: 0.68592 cumulative IPC: 0.64513 (Simulation time: 0 hr 16 min 48 sec) 
Heartbeat CPU  0 instructions:  349000000 cycles:  464992597 heartbeat IPC: 0.67272 cumulative IPC: 0.64523 (Simulation time: 0 hr 16 min 51 sec) 
Heartbeat CPU  0 instructions:  350000003 cycles:  466445650 heartbeat IPC: 0.68821 cumulative IPC: 0.64539 (Simulation time: 0 hr 16 min 54 sec) 
Heartbeat CPU  0 instructions:  351000001 cycles:  467944666 heartbeat IPC: 0.66710 cumulative IPC: 0.64548 (Simulation time: 0 hr 16 min 57 sec) 
Heartbeat CPU  0 instructions:  352000000 cycles:  469429660 heartbeat IPC: 0.67340 cumulative IPC: 0.64558 (Simulation time: 0 hr 17 min 0 sec) 
Heartbeat CPU  0 instructions:  353000003 cycles:  470898812 heartbeat IPC: 0.68067 cumulative IPC: 0.64572 (Simulation time: 0 hr 17 min 3 sec) 
Heartbeat CPU  0 instructions:  354000000 cycles:  472387040 heartbeat IPC: 0.67194 cumulative IPC: 0.64581 (Simulation time: 0 hr 17 min 6 sec) 
Heartbeat CPU  0 instructions:  355000000 cycles:  473868079 heartbeat IPC: 0.67520 cumulative IPC: 0.64592 (Simulation time: 0 hr 17 min 9 sec) 
Heartbeat CPU  0 instructions:  356000000 cycles:  475335279 heartbeat IPC: 0.68157 cumulative IPC: 0.64606 (Simulation time: 0 hr 17 min 12 sec) 
Heartbeat CPU  0 instructions:  357000002 cycles:  476831200 heartbeat IPC: 0.66849 cumulative IPC: 0.64614 (Simulation time: 0 hr 17 min 15 sec) 
Heartbeat CPU  0 instructions:  358000003 cycles:  478298628 heartbeat IPC: 0.68147 cumulative IPC: 0.64627 (Simulation time: 0 hr 17 min 18 sec) 
Heartbeat CPU  0 instructions:  359000000 cycles:  479796796 heartbeat IPC: 0.66748 cumulative IPC: 0.64635 (Simulation time: 0 hr 17 min 21 sec) 
Heartbeat CPU  0 instructions:  360000000 cycles:  481276451 heartbeat IPC: 0.67583 cumulative IPC: 0.64646 (Simulation time: 0 hr 17 min 24 sec) 
Heartbeat CPU  0 instructions:  361000002 cycles:  482742028 heartbeat IPC: 0.68233 cumulative IPC: 0.64659 (Simulation time: 0 hr 17 min 27 sec) 
Heartbeat CPU  0 instructions:  362000003 cycles:  484209576 heartbeat IPC: 0.68141 cumulative IPC: 0.64671 (Simulation time: 0 hr 17 min 31 sec) 
Heartbeat CPU  0 instructions:  363000003 cycles:  485679600 heartbeat IPC: 0.68026 cumulative IPC: 0.64684 (Simulation time: 0 hr 17 min 34 sec) 
Heartbeat CPU  0 instructions:  364000000 cycles:  487173890 heartbeat IPC: 0.66921 cumulative IPC: 0.64692 (Simulation time: 0 hr 17 min 37 sec) 
Heartbeat CPU  0 instructions:  365000003 cycles:  488627620 heartbeat IPC: 0.68789 cumulative IPC: 0.64706 (Simulation time: 0 hr 17 min 40 sec) 
Heartbeat CPU  0 instructions:  366000000 cycles:  490118374 heartbeat IPC: 0.67080 cumulative IPC: 0.64715 (Simulation time: 0 hr 17 min 43 sec) 
Heartbeat CPU  0 instructions:  367000001 cycles:  491604194 heartbeat IPC: 0.67303 cumulative IPC: 0.64724 (Simulation time: 0 hr 17 min 46 sec) 
Heartbeat CPU  0 instructions:  368000000 cycles:  493060189 heartbeat IPC: 0.68681 cumulative IPC: 0.64738 (Simulation time: 0 hr 17 min 49 sec) 
Heartbeat CPU  0 instructions:  369000003 cycles:  494546508 heartbeat IPC: 0.67281 cumulative IPC: 0.64747 (Simulation time: 0 hr 17 min 52 sec) 
Heartbeat CPU  0 instructions:  370000000 cycles:  496021461 heartbeat IPC: 0.67799 cumulative IPC: 0.64758 (Simulation time: 0 hr 17 min 55 sec) 
Heartbeat CPU  0 instructions:  371000000 cycles:  497504132 heartbeat IPC: 0.67446 cumulative IPC: 0.64768 (Simulation time: 0 hr 17 min 58 sec) 
Heartbeat CPU  0 instructions:  372000000 cycles:  499008193 heartbeat IPC: 0.66487 cumulative IPC: 0.64774 (Simulation time: 0 hr 18 min 1 sec) 
Heartbeat CPU  0 instructions:  373000000 cycles:  500466260 heartbeat IPC: 0.68584 cumulative IPC: 0.64787 (Simulation time: 0 hr 18 min 4 sec) 
Heartbeat CPU  0 instructions:  374000003 cycles:  501970934 heartbeat IPC: 0.66460 cumulative IPC: 0.64793 (Simulation time: 0 hr 18 min 7 sec) 
Heartbeat CPU  0 instructions:  375000002 cycles:  503412341 heartbeat IPC: 0.69377 cumulative IPC: 0.64808 (Simulation time: 0 hr 18 min 10 sec) 
Heartbeat CPU  0 instructions:  376000000 cycles:  504910287 heartbeat IPC: 0.66758 cumulative IPC: 0.64815 (Simulation time: 0 hr 18 min 13 sec) 
Heartbeat CPU  0 instructions:  377000003 cycles:  506360111 heartbeat IPC: 0.68974 cumulative IPC: 0.64829 (Simulation time: 0 hr 18 min 16 sec) 
Heartbeat CPU  0 instructions:  378000000 cycles:  507828282 heartbeat IPC: 0.68112 cumulative IPC: 0.64841 (Simulation time: 0 hr 18 min 19 sec) 
Heartbeat CPU  0 instructions:  379000001 cycles:  509306144 heartbeat IPC: 0.67665 cumulative IPC: 0.64850 (Simulation time: 0 hr 18 min 22 sec) 
Heartbeat CPU  0 instructions:  380000000 cycles:  510747505 heartbeat IPC: 0.69379 cumulative IPC: 0.64866 (Simulation time: 0 hr 18 min 25 sec) 
Heartbeat CPU  0 instructions:  381000002 cycles:  512227559 heartbeat IPC: 0.67565 cumulative IPC: 0.64875 (Simulation time: 0 hr 18 min 29 sec) 
Heartbeat CPU  0 instructions:  382000003 cycles:  513716265 heartbeat IPC: 0.67172 cumulative IPC: 0.64883 (Simulation time: 0 hr 18 min 32 sec) 
Heartbeat CPU  0 instructions:  383000000 cycles:  515183413 heartbeat IPC: 0.68159 cumulative IPC: 0.64894 (Simulation time: 0 hr 18 min 35 sec) 
Heartbeat CPU  0 instructions:  384000000 cycles:  516682031 heartbeat IPC: 0.66728 cumulative IPC: 0.64900 (Simulation time: 0 hr 18 min 38 sec) 
Heartbeat CPU  0 instructions:  385000003 cycles:  518125415 heartbeat IPC: 0.69282 cumulative IPC: 0.64914 (Simulation time: 0 hr 18 min 41 sec) 
Heartbeat CPU  0 instructions:  386000000 cycles:  519621965 heartbeat IPC: 0.66820 cumulative IPC: 0.64921 (Simulation time: 0 hr 18 min 44 sec) 
Heartbeat CPU  0 instructions:  387000002 cycles:  521074643 heartbeat IPC: 0.68839 cumulative IPC: 0.64934 (Simulation time: 0 hr 18 min 47 sec) 
Heartbeat CPU  0 instructions:  388000000 cycles:  522578527 heartbeat IPC: 0.66494 cumulative IPC: 0.64939 (Simulation time: 0 hr 18 min 50 sec) 
Heartbeat CPU  0 instructions:  389000000 cycles:  524062668 heartbeat IPC: 0.67379 cumulative IPC: 0.64947 (Simulation time: 0 hr 18 min 53 sec) 
Heartbeat CPU  0 instructions:  390000000 cycles:  525513408 heartbeat IPC: 0.68930 cumulative IPC: 0.64960 (Simulation time: 0 hr 18 min 56 sec) 
Heartbeat CPU  0 instructions:  391000003 cycles:  526996860 heartbeat IPC: 0.67411 cumulative IPC: 0.64968 (Simulation time: 0 hr 18 min 59 sec) 
Heartbeat CPU  0 instructions:  392000000 cycles:  528449486 heartbeat IPC: 0.68841 cumulative IPC: 0.64981 (Simulation time: 0 hr 19 min 2 sec) 
Heartbeat CPU  0 instructions:  393000000 cycles:  529913945 heartbeat IPC: 0.68285 cumulative IPC: 0.64991 (Simulation time: 0 hr 19 min 5 sec) 
Heartbeat CPU  0 instructions:  394000000 cycles:  531418309 heartbeat IPC: 0.66473 cumulative IPC: 0.64996 (Simulation time: 0 hr 19 min 8 sec) 
Heartbeat CPU  0 instructions:  395000000 cycles:  532860678 heartbeat IPC: 0.69330 cumulative IPC: 0.65010 (Simulation time: 0 hr 19 min 11 sec) 
Heartbeat CPU  0 instructions:  396000000 cycles:  534362892 heartbeat IPC: 0.66568 cumulative IPC: 0.65015 (Simulation time: 0 hr 19 min 14 sec) 
Heartbeat CPU  0 instructions:  397000000 cycles:  535840132 heartbeat IPC: 0.67694 cumulative IPC: 0.65024 (Simulation time: 0 hr 19 min 17 sec) 
Heartbeat CPU  0 instructions:  398000001 cycles:  537315614 heartbeat IPC: 0.67775 cumulative IPC: 0.65033 (Simulation time: 0 hr 19 min 20 sec) 
Heartbeat CPU  0 instructions:  399000002 cycles:  538811646 heartbeat IPC: 0.66844 cumulative IPC: 0.65039 (Simulation time: 0 hr 19 min 23 sec) 
Heartbeat CPU  0 instructions:  400000000 cycles:  540273937 heartbeat IPC: 0.68386 cumulative IPC: 0.65049 (Simulation time: 0 hr 19 min 27 sec) 
Heartbeat CPU  0 instructions:  401000002 cycles:  541779535 heartbeat IPC: 0.66419 cumulative IPC: 0.65054 (Simulation time: 0 hr 19 min 30 sec) 
Heartbeat CPU  0 instructions:  402000003 cycles:  543233890 heartbeat IPC: 0.68759 cumulative IPC: 0.65065 (Simulation time: 0 hr 19 min 33 sec) 
Heartbeat CPU  0 instructions:  403000000 cycles:  544724882 heartbeat IPC: 0.67069 cumulative IPC: 0.65072 (Simulation time: 0 hr 19 min 36 sec) 
Heartbeat CPU  0 instructions:  404000000 cycles:  546207474 heartbeat IPC: 0.67449 cumulative IPC: 0.65079 (Simulation time: 0 hr 19 min 39 sec) 
Heartbeat CPU  0 instructions:  405000003 cycles:  547666348 heartbeat IPC: 0.68546 cumulative IPC: 0.65090 (Simulation time: 0 hr 19 min 42 sec) 
Heartbeat CPU  0 instructions:  406000000 cycles:  549148520 heartbeat IPC: 0.67468 cumulative IPC: 0.65098 (Simulation time: 0 hr 19 min 45 sec) 
Heartbeat CPU  0 instructions:  407000001 cycles:  550612268 heartbeat IPC: 0.68318 cumulative IPC: 0.65108 (Simulation time: 0 hr 19 min 48 sec) 
Heartbeat CPU  0 instructions:  408000000 cycles:  552083140 heartbeat IPC: 0.67987 cumulative IPC: 0.65117 (Simulation time: 0 hr 19 min 51 sec) 
Heartbeat CPU  0 instructions:  409000002 cycles:  553589698 heartbeat IPC: 0.66377 cumulative IPC: 0.65121 (Simulation time: 0 hr 19 min 54 sec) 
Heartbeat CPU  0 instructions:  410000000 cycles:  555044342 heartbeat IPC: 0.68745 cumulative IPC: 0.65132 (Simulation time: 0 hr 19 min 57 sec) 
Heartbeat CPU  0 instructions:  411000001 cycles:  556537092 heartbeat IPC: 0.66991 cumulative IPC: 0.65137 (Simulation time: 0 hr 20 min 0 sec) 
Heartbeat CPU  0 instructions:  412000000 cycles:  558001424 heartbeat IPC: 0.68290 cumulative IPC: 0.65147 (Simulation time: 0 hr 20 min 3 sec) 
Heartbeat CPU  0 instructions:  413000002 cycles:  559508684 heartbeat IPC: 0.66346 cumulative IPC: 0.65151 (Simulation time: 0 hr 20 min 6 sec) 
Heartbeat CPU  0 instructions:  414000001 cycles:  560988978 heartbeat IPC: 0.67554 cumulative IPC: 0.65158 (Simulation time: 0 hr 20 min 9 sec) 
Heartbeat CPU  0 instructions:  415000002 cycles:  562472868 heartbeat IPC: 0.67391 cumulative IPC: 0.65165 (Simulation time: 0 hr 20 min 12 sec) 
Heartbeat CPU  0 instructions:  416000000 cycles:  563960640 heartbeat IPC: 0.67214 cumulative IPC: 0.65171 (Simulation time: 0 hr 20 min 15 sec) 
Heartbeat CPU  0 instructions:  417000003 cycles:  565412507 heartbeat IPC: 0.68877 cumulative IPC: 0.65182 (Simulation time: 0 hr 20 min 18 sec) 
Heartbeat CPU  0 instructions:  418000000 cycles:  566895572 heartbeat IPC: 0.67428 cumulative IPC: 0.65189 (Simulation time: 0 hr 20 min 21 sec) 
Heartbeat CPU  0 instructions:  419000001 cycles:  568373326 heartbeat IPC: 0.67670 cumulative IPC: 0.65197 (Simulation time: 0 hr 20 min 25 sec) 
Heartbeat CPU  0 instructions:  420000000 cycles:  569823295 heartbeat IPC: 0.68967 cumulative IPC: 0.65208 (Simulation time: 0 hr 20 min 28 sec) 
Heartbeat CPU  0 instructions:  421000000 cycles:  571314435 heartbeat IPC: 0.67063 cumulative IPC: 0.65214 (Simulation time: 0 hr 20 min 31 sec) 
Heartbeat CPU  0 instructions:  422000001 cycles:  572763303 heartbeat IPC: 0.69019 cumulative IPC: 0.65225 (Simulation time: 0 hr 20 min 34 sec) 
Heartbeat CPU  0 instructions:  423000003 cycles:  574229922 heartbeat IPC: 0.68184 cumulative IPC: 0.65233 (Simulation time: 0 hr 20 min 37 sec) 
Heartbeat CPU  0 instructions:  424000000 cycles:  575702014 heartbeat IPC: 0.67930 cumulative IPC: 0.65241 (Simulation time: 0 hr 20 min 40 sec) 
Heartbeat CPU  0 instructions:  425000001 cycles:  577183401 heartbeat IPC: 0.67504 cumulative IPC: 0.65248 (Simulation time: 0 hr 20 min 43 sec) 
Heartbeat CPU  0 instructions:  426000002 cycles:  578670469 heartbeat IPC: 0.67246 cumulative IPC: 0.65254 (Simulation time: 0 hr 20 min 46 sec) 
Heartbeat CPU  0 instructions:  427000000 cycles:  580136400 heartbeat IPC: 0.68216 cumulative IPC: 0.65263 (Simulation time: 0 hr 20 min 49 sec) 
Heartbeat CPU  0 instructions:  428000000 cycles:  581615854 heartbeat IPC: 0.67593 cumulative IPC: 0.65270 (Simulation time: 0 hr 20 min 52 sec) 
Heartbeat CPU  0 instructions:  429000000 cycles:  583081415 heartbeat IPC: 0.68233 cumulative IPC: 0.65278 (Simulation time: 0 hr 20 min 55 sec) 
Heartbeat CPU  0 instructions:  430000000 cycles:  584548254 heartbeat IPC: 0.68174 cumulative IPC: 0.65287 (Simulation time: 0 hr 20 min 58 sec) 
Heartbeat CPU  0 instructions:  431000002 cycles:  586031508 heartbeat IPC: 0.67419 cumulative IPC: 0.65293 (Simulation time: 0 hr 21 min 1 sec) 
Heartbeat CPU  0 instructions:  432000000 cycles:  587499619 heartbeat IPC: 0.68115 cumulative IPC: 0.65301 (Simulation time: 0 hr 21 min 4 sec) 
Heartbeat CPU  0 instructions:  433000001 cycles:  588976034 heartbeat IPC: 0.67732 cumulative IPC: 0.65308 (Simulation time: 0 hr 21 min 7 sec) 
Heartbeat CPU  0 instructions:  434000000 cycles:  590462582 heartbeat IPC: 0.67270 cumulative IPC: 0.65314 (Simulation time: 0 hr 21 min 10 sec) 
Heartbeat CPU  0 instructions:  435000003 cycles:  591925259 heartbeat IPC: 0.68368 cumulative IPC: 0.65323 (Simulation time: 0 hr 21 min 13 sec) 
Heartbeat CPU  0 instructions:  436000000 cycles:  593416655 heartbeat IPC: 0.67051 cumulative IPC: 0.65328 (Simulation time: 0 hr 21 min 16 sec) 
Heartbeat CPU  0 instructions:  437000002 cycles:  594888201 heartbeat IPC: 0.67956 cumulative IPC: 0.65335 (Simulation time: 0 hr 21 min 19 sec) 
Heartbeat CPU  0 instructions:  438000001 cycles:  596368656 heartbeat IPC: 0.67547 cumulative IPC: 0.65341 (Simulation time: 0 hr 21 min 22 sec) 
Heartbeat CPU  0 instructions:  439000000 cycles:  597837791 heartbeat IPC: 0.68067 cumulative IPC: 0.65349 (Simulation time: 0 hr 21 min 25 sec) 
Heartbeat CPU  0 instructions:  440000000 cycles:  599318846 heartbeat IPC: 0.67519 cumulative IPC: 0.65355 (Simulation time: 0 hr 21 min 28 sec) 
Heartbeat CPU  0 instructions:  441000001 cycles:  600820888 heartbeat IPC: 0.66576 cumulative IPC: 0.65359 (Simulation time: 0 hr 21 min 32 sec) 
Heartbeat CPU  0 instructions:  442000000 cycles:  602273791 heartbeat IPC: 0.68828 cumulative IPC: 0.65368 (Simulation time: 0 hr 21 min 35 sec) 
Heartbeat CPU  0 instructions:  443000000 cycles:  603742277 heartbeat IPC: 0.68097 cumulative IPC: 0.65376 (Simulation time: 0 hr 21 min 38 sec) 
Heartbeat CPU  0 instructions:  444000000 cycles:  605247350 heartbeat IPC: 0.66442 cumulative IPC: 0.65379 (Simulation time: 0 hr 21 min 41 sec) 
Heartbeat CPU  0 instructions:  445000002 cycles:  606729801 heartbeat IPC: 0.67456 cumulative IPC: 0.65385 (Simulation time: 0 hr 21 min 44 sec) 
Heartbeat CPU  0 instructions:  446000001 cycles:  608213669 heartbeat IPC: 0.67391 cumulative IPC: 0.65391 (Simulation time: 0 hr 21 min 47 sec) 
Heartbeat CPU  0 instructions:  447000003 cycles:  609678013 heartbeat IPC: 0.68290 cumulative IPC: 0.65399 (Simulation time: 0 hr 21 min 50 sec) 
Heartbeat CPU  0 instructions:  448000000 cycles:  611195635 heartbeat IPC: 0.65892 cumulative IPC: 0.65400 (Simulation time: 0 hr 21 min 53 sec) 
Heartbeat CPU  0 instructions:  449000000 cycles:  612679447 heartbeat IPC: 0.67394 cumulative IPC: 0.65405 (Simulation time: 0 hr 21 min 56 sec) 
Heartbeat CPU  0 instructions:  450000003 cycles:  614139066 heartbeat IPC: 0.68511 cumulative IPC: 0.65414 (Simulation time: 0 hr 21 min 59 sec) 
Heartbeat CPU  0 instructions:  451000000 cycles:  615640762 heartbeat IPC: 0.66591 cumulative IPC: 0.65417 (Simulation time: 0 hr 22 min 2 sec) 
Heartbeat CPU  0 instructions:  452000000 cycles:  617136976 heartbeat IPC: 0.66835 cumulative IPC: 0.65421 (Simulation time: 0 hr 22 min 5 sec) 
Heartbeat CPU  0 instructions:  453000001 cycles:  618612119 heartbeat IPC: 0.67790 cumulative IPC: 0.65428 (Simulation time: 0 hr 22 min 8 sec) 
Heartbeat CPU  0 instructions:  454000002 cycles:  620078334 heartbeat IPC: 0.68203 cumulative IPC: 0.65435 (Simulation time: 0 hr 22 min 11 sec) 
Heartbeat CPU  0 instructions:  455000000 cycles:  621541247 heartbeat IPC: 0.68357 cumulative IPC: 0.65443 (Simulation time: 0 hr 22 min 14 sec) 
Heartbeat CPU  0 instructions:  456000000 cycles:  623031438 heartbeat IPC: 0.67105 cumulative IPC: 0.65448 (Simulation time: 0 hr 22 min 17 sec) 
Heartbeat CPU  0 instructions:  457000002 cycles:  624485023 heartbeat IPC: 0.68796 cumulative IPC: 0.65457 (Simulation time: 0 hr 22 min 20 sec) 
Heartbeat CPU  0 instructions:  458000003 cycles:  625974236 heartbeat IPC: 0.67150 cumulative IPC: 0.65461 (Simulation time: 0 hr 22 min 23 sec) 
Heartbeat CPU  0 instructions:  459000001 cycles:  627436472 heartbeat IPC: 0.68388 cumulative IPC: 0.65469 (Simulation time: 0 hr 22 min 26 sec) 
Heartbeat CPU  0 instructions:  460000000 cycles:  628912104 heartbeat IPC: 0.67768 cumulative IPC: 0.65475 (Simulation time: 0 hr 22 min 30 sec) 
Heartbeat CPU  0 instructions:  461000002 cycles:  630401651 heartbeat IPC: 0.67135 cumulative IPC: 0.65480 (Simulation time: 0 hr 22 min 33 sec) 
Heartbeat CPU  0 instructions:  462000003 cycles:  631866558 heartbeat IPC: 0.68264 cumulative IPC: 0.65487 (Simulation time: 0 hr 22 min 36 sec) 
Heartbeat CPU  0 instructions:  463000002 cycles:  633366236 heartbeat IPC: 0.66681 cumulative IPC: 0.65490 (Simulation time: 0 hr 22 min 39 sec) 
Heartbeat CPU  0 instructions:  464000000 cycles:  634828843 heartbeat IPC: 0.68371 cumulative IPC: 0.65498 (Simulation time: 0 hr 22 min 42 sec) 
Heartbeat CPU  0 instructions:  465000001 cycles:  636291770 heartbeat IPC: 0.68356 cumulative IPC: 0.65505 (Simulation time: 0 hr 22 min 45 sec) 
Heartbeat CPU  0 instructions:  466000000 cycles:  637812522 heartbeat IPC: 0.65757 cumulative IPC: 0.65506 (Simulation time: 0 hr 22 min 48 sec) 
Heartbeat CPU  0 instructions:  467000001 cycles:  639282492 heartbeat IPC: 0.68029 cumulative IPC: 0.65513 (Simulation time: 0 hr 22 min 51 sec) 
Heartbeat CPU  0 instructions:  468000000 cycles:  640769041 heartbeat IPC: 0.67270 cumulative IPC: 0.65517 (Simulation time: 0 hr 22 min 54 sec) 
Heartbeat CPU  0 instructions:  469000002 cycles:  642231518 heartbeat IPC: 0.68377 cumulative IPC: 0.65525 (Simulation time: 0 hr 22 min 57 sec) 
Heartbeat CPU  0 instructions:  470000003 cycles:  643732499 heartbeat IPC: 0.66623 cumulative IPC: 0.65528 (Simulation time: 0 hr 23 min 0 sec) 
Heartbeat CPU  0 instructions:  471000002 cycles:  645248233 heartbeat IPC: 0.65975 cumulative IPC: 0.65529 (Simulation time: 0 hr 23 min 3 sec) 
Heartbeat CPU  0 instructions:  472000000 cycles:  646702037 heartbeat IPC: 0.68785 cumulative IPC: 0.65537 (Simulation time: 0 hr 23 min 6 sec) 
Heartbeat CPU  0 instructions:  473000001 cycles:  648193345 heartbeat IPC: 0.67055 cumulative IPC: 0.65541 (Simulation time: 0 hr 23 min 9 sec) 
Heartbeat CPU  0 instructions:  474000000 cycles:  649695529 heartbeat IPC: 0.66570 cumulative IPC: 0.65544 (Simulation time: 0 hr 23 min 12 sec) 
Heartbeat CPU  0 instructions:  475000001 cycles:  651165956 heartbeat IPC: 0.68008 cumulative IPC: 0.65550 (Simulation time: 0 hr 23 min 15 sec) 
Heartbeat CPU  0 instructions:  476000000 cycles:  652644582 heartbeat IPC: 0.67630 cumulative IPC: 0.65556 (Simulation time: 0 hr 23 min 18 sec) 
Heartbeat CPU  0 instructions:  477000003 cycles:  654095926 heartbeat IPC: 0.68902 cumulative IPC: 0.65564 (Simulation time: 0 hr 23 min 22 sec) 
Heartbeat CPU  0 instructions:  478000002 cycles:  655630964 heartbeat IPC: 0.65145 cumulative IPC: 0.65563 (Simulation time: 0 hr 23 min 25 sec) 
Heartbeat CPU  0 instructions:  479000003 cycles:  657093014 heartbeat IPC: 0.68397 cumulative IPC: 0.65570 (Simulation time: 0 hr 23 min 28 sec) 
Heartbeat CPU  0 instructions:  480000000 cycles:  658565411 heartbeat IPC: 0.67916 cumulative IPC: 0.65576 (Simulation time: 0 hr 23 min 31 sec) 
Heartbeat CPU  0 instructions:  481000000 cycles:  660052386 heartbeat IPC: 0.67251 cumulative IPC: 0.65580 (Simulation time: 0 hr 23 min 34 sec) 
Heartbeat CPU  0 instructions:  482000003 cycles:  661509264 heartbeat IPC: 0.68640 cumulative IPC: 0.65588 (Simulation time: 0 hr 23 min 37 sec) 
Heartbeat CPU  0 instructions:  483000000 cycles:  662999244 heartbeat IPC: 0.67115 cumulative IPC: 0.65592 (Simulation time: 0 hr 23 min 40 sec) 
Heartbeat CPU  0 instructions:  484000000 cycles:  664479537 heartbeat IPC: 0.67554 cumulative IPC: 0.65597 (Simulation time: 0 hr 23 min 43 sec) 
Heartbeat CPU  0 instructions:  485000001 cycles:  665966943 heartbeat IPC: 0.67231 cumulative IPC: 0.65601 (Simulation time: 0 hr 23 min 46 sec) 
Heartbeat CPU  0 instructions:  486000000 cycles:  667452764 heartbeat IPC: 0.67303 cumulative IPC: 0.65605 (Simulation time: 0 hr 23 min 49 sec) 
Heartbeat CPU  0 instructions:  487000001 cycles:  668904735 heartbeat IPC: 0.68872 cumulative IPC: 0.65613 (Simulation time: 0 hr 23 min 52 sec) 
Heartbeat CPU  0 instructions:  488000000 cycles:  670418499 heartbeat IPC: 0.66060 cumulative IPC: 0.65614 (Simulation time: 0 hr 23 min 55 sec) 
Heartbeat CPU  0 instructions:  489000002 cycles:  671909003 heartbeat IPC: 0.67092 cumulative IPC: 0.65618 (Simulation time: 0 hr 23 min 58 sec) 
Heartbeat CPU  0 instructions:  490000001 cycles:  673386719 heartbeat IPC: 0.67672 cumulative IPC: 0.65623 (Simulation time: 0 hr 24 min 1 sec) 
Heartbeat CPU  0 instructions:  491000001 cycles:  674879270 heartbeat IPC: 0.66999 cumulative IPC: 0.65627 (Simulation time: 0 hr 24 min 5 sec) 
Heartbeat CPU  0 instructions:  492000000 cycles:  676356698 heartbeat IPC: 0.67685 cumulative IPC: 0.65632 (Simulation time: 0 hr 24 min 8 sec) 
Heartbeat CPU  0 instructions:  493000003 cycles:  677871459 heartbeat IPC: 0.66017 cumulative IPC: 0.65633 (Simulation time: 0 hr 24 min 11 sec) 
Heartbeat CPU  0 instructions:  494000001 cycles:  679335309 heartbeat IPC: 0.68313 cumulative IPC: 0.65639 (Simulation time: 0 hr 24 min 14 sec) 
Heartbeat CPU  0 instructions:  495000000 cycles:  680813004 heartbeat IPC: 0.67673 cumulative IPC: 0.65644 (Simulation time: 0 hr 24 min 17 sec) 
Heartbeat CPU  0 instructions:  496000000 cycles:  682336897 heartbeat IPC: 0.65621 cumulative IPC: 0.65644 (Simulation time: 0 hr 24 min 20 sec) 
Heartbeat CPU  0 instructions:  497000002 cycles:  683805716 heartbeat IPC: 0.68082 cumulative IPC: 0.65650 (Simulation time: 0 hr 24 min 23 sec) 
Heartbeat CPU  0 instructions:  498000000 cycles:  685292292 heartbeat IPC: 0.67269 cumulative IPC: 0.65654 (Simulation time: 0 hr 24 min 26 sec) 
Heartbeat CPU  0 instructions:  499000001 cycles:  686761567 heartbeat IPC: 0.68061 cumulative IPC: 0.65660 (Simulation time: 0 hr 24 min 29 sec) 
Heartbeat CPU  0 instructions:  500000000 cycles:  688277108 heartbeat IPC: 0.65983 cumulative IPC: 0.65661 (Simulation time: 0 hr 24 min 32 sec) 
Heartbeat CPU  0 instructions:  501000000 cycles:  689762105 heartbeat IPC: 0.67340 cumulative IPC: 0.65665 (Simulation time: 0 hr 24 min 35 sec) 
Heartbeat CPU  0 instructions:  502000003 cycles:  691213254 heartbeat IPC: 0.68911 cumulative IPC: 0.65673 (Simulation time: 0 hr 24 min 38 sec) 
Heartbeat CPU  0 instructions:  503000003 cycles:  692697009 heartbeat IPC: 0.67397 cumulative IPC: 0.65677 (Simulation time: 0 hr 24 min 41 sec) 
Heartbeat CPU  0 instructions:  504000000 cycles:  694199692 heartbeat IPC: 0.66547 cumulative IPC: 0.65679 (Simulation time: 0 hr 24 min 44 sec) 
Heartbeat CPU  0 instructions:  505000001 cycles:  695674227 heartbeat IPC: 0.67818 cumulative IPC: 0.65684 (Simulation time: 0 hr 24 min 47 sec) 
Heartbeat CPU  0 instructions:  506000001 cycles:  697149549 heartbeat IPC: 0.67782 cumulative IPC: 0.65689 (Simulation time: 0 hr 24 min 50 sec) 
Heartbeat CPU  0 instructions:  507000003 cycles:  698610343 heartbeat IPC: 0.68456 cumulative IPC: 0.65695 (Simulation time: 0 hr 24 min 54 sec) 
Heartbeat CPU  0 instructions:  508000000 cycles:  700094678 heartbeat IPC: 0.67370 cumulative IPC: 0.65699 (Simulation time: 0 hr 24 min 57 sec) 
Heartbeat CPU  0 instructions:  509000000 cycles:  701558757 heartbeat IPC: 0.68302 cumulative IPC: 0.65706 (Simulation time: 0 hr 25 min 0 sec) 
Heartbeat CPU  0 instructions:  510000002 cycles:  703062226 heartbeat IPC: 0.66513 cumulative IPC: 0.65708 (Simulation time: 0 hr 25 min 3 sec) 
Heartbeat CPU  0 instructions:  511000003 cycles:  704579587 heartbeat IPC: 0.65904 cumulative IPC: 0.65708 (Simulation time: 0 hr 25 min 6 sec) 
Heartbeat CPU  0 instructions:  512000000 cycles:  706046502 heartbeat IPC: 0.68170 cumulative IPC: 0.65714 (Simulation time: 0 hr 25 min 9 sec) 
Heartbeat CPU  0 instructions:  513000001 cycles:  707527535 heartbeat IPC: 0.67521 cumulative IPC: 0.65718 (Simulation time: 0 hr 25 min 12 sec) 
Heartbeat CPU  0 instructions:  514000003 cycles:  708997649 heartbeat IPC: 0.68022 cumulative IPC: 0.65723 (Simulation time: 0 hr 25 min 15 sec) 
Heartbeat CPU  0 instructions:  515000002 cycles:  710518171 heartbeat IPC: 0.65767 cumulative IPC: 0.65724 (Simulation time: 0 hr 25 min 18 sec) 
Heartbeat CPU  0 instructions:  516000000 cycles:  711997351 heartbeat IPC: 0.67605 cumulative IPC: 0.65728 (Simulation time: 0 hr 25 min 21 sec) 
Heartbeat CPU  0 instructions:  517000001 cycles:  713459488 heartbeat IPC: 0.68393 cumulative IPC: 0.65734 (Simulation time: 0 hr 25 min 24 sec) 
Heartbeat CPU  0 instructions:  518000000 cycles:  714994422 heartbeat IPC: 0.65149 cumulative IPC: 0.65733 (Simulation time: 0 hr 25 min 27 sec) 
Heartbeat CPU  0 instructions:  519000003 cycles:  716493602 heartbeat IPC: 0.66703 cumulative IPC: 0.65735 (Simulation time: 0 hr 25 min 30 sec) 
Heartbeat CPU  0 instructions:  520000000 cycles:  717971403 heartbeat IPC: 0.67668 cumulative IPC: 0.65739 (Simulation time: 0 hr 25 min 33 sec) 
Heartbeat CPU  0 instructions:  521000000 cycles:  719467648 heartbeat IPC: 0.66834 cumulative IPC: 0.65742 (Simulation time: 0 hr 25 min 36 sec) 
Heartbeat CPU  0 instructions:  522000003 cycles:  720975835 heartbeat IPC: 0.66305 cumulative IPC: 0.65743 (Simulation time: 0 hr 25 min 39 sec) 
Heartbeat CPU  0 instructions:  523000002 cycles:  722490882 heartbeat IPC: 0.66004 cumulative IPC: 0.65744 (Simulation time: 0 hr 25 min 42 sec) 
Heartbeat CPU  0 instructions:  524000000 cycles:  723949093 heartbeat IPC: 0.68577 cumulative IPC: 0.65750 (Simulation time: 0 hr 25 min 46 sec) 
Heartbeat CPU  0 instructions:  525000001 cycles:  725428573 heartbeat IPC: 0.67591 cumulative IPC: 0.65755 (Simulation time: 0 hr 25 min 49 sec) 
Heartbeat CPU  0 instructions:  526000000 cycles:  726945756 heartbeat IPC: 0.65912 cumulative IPC: 0.65755 (Simulation time: 0 hr 25 min 52 sec) 
Heartbeat CPU  0 instructions:  527000002 cycles:  728412141 heartbeat IPC: 0.68195 cumulative IPC: 0.65760 (Simulation time: 0 hr 25 min 55 sec) 
Heartbeat CPU  0 instructions:  528000000 cycles:  729893246 heartbeat IPC: 0.67517 cumulative IPC: 0.65764 (Simulation time: 0 hr 25 min 58 sec) 
[...]
Heartbeat CPU  0 instructions:  535000003 cycles:  740208619 heartbeat IPC: 0.67580 cumulative IPC: 0.65797 (Simulation time: 0 hr 26 min 19 sec) 
Heartbeat CPU  0 instructions:  536000000 cycles:  741677603 heartbeat IPC: 0.68074 cumulative IPC: 0.65802 (Simulation time: 0 hr 26 min 22 sec) 
Heartbeat CPU  0 instructions:  537000001 cycles:  743159481 heartbeat IPC: 0.67482 cumulative IPC: 0.65806 (Simulation time: 0 hr 26 min 25 sec) 
Heartbeat CPU  0 instructions:  538000000 cycles:  744647649 heartbeat IPC: 0.67197 cumulative IPC: 0.65809 (Simulation time: 0 hr 26 min 28 sec) 
Heartbeat CPU  0 instructions:  539000000 cycles:  746021897 heartbeat IPC: 0.72767 cumulative IPC: 0.65823 (Simulation time: 0 hr 26 min 31 sec) 
Heartbeat CPU  0 instructions:  540000000 cycles:  747139144 heartbeat IPC: 0.89506 cumulative IPC: 0.65863 (Simulation time: 0 hr 26 min 34 sec) 
Heartbeat CPU  0 instructions:  541000000 cycles:  748255187 heartbeat IPC: 0.89602 cumulative IPC: 0.65903 (Simulation time: 0 hr 26 min 36 sec) 
Heartbeat CPU  0 instructions:  542000000 cycles:  749357406 heartbeat IPC: 0.90726 cumulative IPC: 0.65943 (Simulation time: 0 hr 26 min 39 sec) 
Heartbeat CPU  0 instructions:  543000002 cycles:  750795898 heartbeat IPC: 0.69517 cumulative IPC: 0.65951 (Simulation time: 0 hr 26 min 42 sec) 
Heartbeat CPU  0 instructions:  544000000 cycles:  752249748 heartbeat IPC: 0.68783 cumulative IPC: 0.65957 (Simulation time: 0 hr 26 min 45 sec) 
Heartbeat CPU  0 instructions:  545000002 cycles:  753702049 heartbeat IPC: 0.68856 cumulative IPC: 0.65963 (Simulation time: 0 hr 26 min 48 sec) 
Heartbeat CPU  0 instructions:  546000002 cycles:  755160683 heartbeat IPC: 0.68557 cumulative IPC: 0.65969 (Simulation time: 0 hr 26 min 51 sec) 
Heartbeat CPU  0 instructions:  547000000 cycles:  756622598 heartbeat IPC: 0.68403 cumulative IPC: 0.65974 (Simulation time: 0 hr 26 min 54 sec) 
Heartbeat CPU  0 instructions:  548000000 cycles:  758080464 heartbeat IPC: 0.68593 cumulative IPC: 0.65980 (Simulation time: 0 hr 26 min 57 sec) 
Heartbeat CPU  0 instructions:  549000002 cycles:  759569580 heartbeat IPC: 0.67154 cumulative IPC: 0.65982 (Simulation time: 0 hr 27 min 0 sec) 
Heartbeat CPU  0 instructions:  550000000 cycles:  761037044 heartbeat IPC: 0.68145 cumulative IPC: 0.65987 (Simulation time: 0 hr 27 min 3 sec) 
Heartbeat CPU  0 instructions:  551000000 cycles:  762495797 heartbeat IPC: 0.68552 cumulative IPC: 0.65993 (Simulation time: 0 hr 27 min 7 sec) 
Heartbeat CPU  0 instructions:  552000000 cycles:  763962308 heartbeat IPC: 0.68189 cumulative IPC: 0.65997 (Simulation time: 0 hr 27 min 10 sec) 
Heartbeat CPU  0 instructions:  553000001 cycles:  765421592 heartbeat IPC: 0.68527 cumulative IPC: 0.66003 (Simulation time: 0 hr 27 min 13 sec) 
Heartbeat CPU  0 instructions:  554000002 cycles:  766889247 heartbeat IPC: 0.68136 cumulative IPC: 0.66007 (Simulation time: 0 hr 27 min 16 sec) 
Heartbeat CPU  0 instructions:  555000000 cycles:  768351071 heartbeat IPC: 0.68408 cumulative IPC: 0.66012 (Simulation time: 0 hr 27 min 19 sec) 
Heartbeat CPU  0 instructions:  556000000 cycles:  769794367 heartbeat IPC: 0.69286 cumulative IPC: 0.66019 (Simulation time: 0 hr 27 min 22 sec) 
Heartbeat CPU  0 instructions:  557000001 cycles:  771261627 heartbeat IPC: 0.68154 cumulative IPC: 0.66024 (Simulation time: 0 hr 27 min 25 sec) 
Heartbeat CPU  0 instructions:  558000003 cycles:  772728428 heartbeat IPC: 0.68176 cumulative IPC: 0.66028 (Simulation time: 0 hr 27 min 28 sec) 
Heartbeat CPU  0 instructions:  559000000 cycles:  774180605 heartbeat IPC: 0.68862 cumulative IPC: 0.66034 (Simulation time: 0 hr 27 min 31 sec) 
Heartbeat CPU  0 instructions:  560000000 cycles:  775633782 heartbeat IPC: 0.68815 cumulative IPC: 0.66040 (Simulation time: 0 hr 27 min 34 sec) 
Heartbeat CPU  0 instructions:  561000000 cycles:  777080220 heartbeat IPC: 0.69135 cumulative IPC: 0.66046 (Simulation time: 0 hr 27 min 37 sec) 
Heartbeat CPU  0 instructions:  562000003 cycles:  778520013 heartbeat IPC: 0.69455 cumulative IPC: 0.66053 (Simulation time: 0 hr 27 min 40 sec) 
Heartbeat CPU  0 instructions:  563000003 cycles:  779969440 heartbeat IPC: 0.68993 cumulative IPC: 0.66059 (Simulation time: 0 hr 27 min 43 sec) 
Heartbeat CPU  0 instructions:  564000000 cycles:  781415744 heartbeat IPC: 0.69142 cumulative IPC: 0.66066 (Simulation time: 0 hr 27 min 46 sec) 
Heartbeat CPU  0 instructions:  565000000 cycles:  782860263 heartbeat IPC: 0.69227 cumulative IPC: 0.66072 (Simulation time: 0 hr 27 min 49 sec) 
Heartbeat CPU  0 instructions:  566000001 cycles:  784313479 heartbeat IPC: 0.68813 cumulative IPC: 0.66078 (Simulation time: 0 hr 27 min 52 sec) 
Heartbeat CPU  0 instructions:  567000000 cycles:  785765871 heartbeat IPC: 0.68852 cumulative IPC: 0.66084 (Simulation time: 0 hr 27 min 55 sec) 
Heartbeat CPU  0 instructions:  568000000 cycles:  787209090 heartbeat IPC: 0.69290 cumulative IPC: 0.66090 (Simulation time: 0 hr 27 min 58 sec) 
Heartbeat CPU  0 instructions:  569000003 cycles:  788662086 heartbeat IPC: 0.68824 cumulative IPC: 0.66096 (Simulation time: 0 hr 28 min 1 sec) 
Heartbeat CPU  0 instructions:  570000000 cycles:  790119809 heartbeat IPC: 0.68600 cumulative IPC: 0.66101 (Simulation time: 0 hr 28 min 4 sec) 
Heartbeat CPU  0 instructions:  571000000 cycles:  791574535 heartbeat IPC: 0.68741 cumulative IPC: 0.66106 (Simulation time: 0 hr 28 min 7 sec) 
Heartbeat CPU  0 instructions:  572000000 cycles:  793024345 heartbeat IPC: 0.68975 cumulative IPC: 0.66112 (Simulation time: 0 hr 28 min 10 sec) 
Heartbeat CPU  0 instructions:  573000001 cycles:  794470165 heartbeat IPC: 0.69165 cumulative IPC: 0.66118 (Simulation time: 0 hr 28 min 13 sec) 
Heartbeat CPU  0 instructions:  574000001 cycles:  795918601 heartbeat IPC: 0.69040 cumulative IPC: 0.66124 (Simulation time: 0 hr 28 min 16 sec) 
Heartbeat CPU  0 instructions:  575000001 cycles:  797384922 heartbeat IPC: 0.68198 cumulative IPC: 0.66128 (Simulation time: 0 hr 28 min 19 sec) 
Heartbeat CPU  0 instructions:  576000000 cycles:  798838042 heartbeat IPC: 0.68817 cumulative IPC: 0.66134 (Simulation time: 0 hr 28 min 22 sec) 
Heartbeat CPU  0 instructions:  577000001 cycles:  800287085 heartbeat IPC: 0.69011 cumulative IPC: 0.66140 (Simulation time: 0 hr 28 min 25 sec) 
Heartbeat CPU  0 instructions:  578000001 cycles:  801742171 heartbeat IPC: 0.68724 cumulative IPC: 0.66145 (Simulation time: 0 hr 28 min 29 sec) 
Heartbeat CPU  0 instructions:  579000000 cycles:  803206428 heartbeat IPC: 0.68294 cumulative IPC: 0.66149 (Simulation time: 0 hr 28 min 32 sec) 
Heartbeat CPU  0 instructions:  580000000 cycles:  804651334 heartbeat IPC: 0.69209 cumulative IPC: 0.66155 (Simulation time: 0 hr 28 min 35 sec) 
Heartbeat CPU  0 instructions:  581000002 cycles:  806091453 heartbeat IPC: 0.69439 cumulative IPC: 0.66162 (Simulation time: 0 hr 28 min 38 sec) 
Heartbeat CPU  0 instructions:  582000000 cycles:  807550478 heartbeat IPC: 0.68539 cumulative IPC: 0.66166 (Simulation time: 0 hr 28 min 41 sec) 
Heartbeat CPU  0 instructions:  583000000 cycles:  809001245 heartbeat IPC: 0.68929 cumulative IPC: 0.66172 (Simulation time: 0 hr 28 min 44 sec) 
Heartbeat CPU  0 instructions:  584000000 cycles:  810441351 heartbeat IPC: 0.69439 cumulative IPC: 0.66178 (Simulation time: 0 hr 28 min 47 sec) 
Heartbeat CPU  0 instructions:  585000003 cycles:  811896275 heartbeat IPC: 0.68732 cumulative IPC: 0.66183 (Simulation time: 0 hr 28 min 50 sec) 
Heartbeat CPU  0 instructions:  586000000 cycles:  813339097 heartbeat IPC: 0.69308 cumulative IPC: 0.66190 (Simulation time: 0 hr 28 min 53 sec) 
Heartbeat CPU  0 instructions:  587000001 cycles:  814779641 heartbeat IPC: 0.69418 cumulative IPC: 0.66196 (Simulation time: 0 hr 28 min 56 sec) 
Heartbeat CPU  0 instructions:  588000000 cycles:  816251979 heartbeat IPC: 0.67919 cumulative IPC: 0.66199 (Simulation time: 0 hr 28 min 59 sec) 
Heartbeat CPU  0 instructions:  589000000 cycles:  817693674 heartbeat IPC: 0.69363 cumulative IPC: 0.66206 (Simulation time: 0 hr 29 min 2 sec) 
Heartbeat CPU  0 instructions:  590000003 cycles:  819147599 heartbeat IPC: 0.68780 cumulative IPC: 0.66211 (Simulation time: 0 hr 29 min 5 sec) 
Heartbeat CPU  0 instructions:  591000002 cycles:  820606473 heartbeat IPC: 0.68546 cumulative IPC: 0.66215 (Simulation time: 0 hr 29 min 8 sec) 
Heartbeat CPU  0 instructions:  592000000 cycles:  822057405 heartbeat IPC: 0.68921 cumulative IPC: 0.66221 (Simulation time: 0 hr 29 min 11 sec) 
Heartbeat CPU  0 instructions:  593000001 cycles:  823513448 heartbeat IPC: 0.68679 cumulative IPC: 0.66225 (Simulation time: 0 hr 29 min 14 sec) 
Heartbeat CPU  0 instructions:  594000000 cycles:  824967270 heartbeat IPC: 0.68784 cumulative IPC: 0.66230 (Simulation time: 0 hr 29 min 17 sec) 
Heartbeat CPU  0 instructions:  595000000 cycles:  826409821 heartbeat IPC: 0.69322 cumulative IPC: 0.66236 (Simulation time: 0 hr 29 min 20 sec) 
Heartbeat CPU  0 instructions:  596000000 cycles:  827858476 heartbeat IPC: 0.69030 cumulative IPC: 0.66242 (Simulation time: 0 hr 29 min 23 sec) 
Heartbeat CPU  0 instructions:  597000003 cycles:  829311549 heartbeat IPC: 0.68820 cumulative IPC: 0.66247 (Simulation time: 0 hr 29 min 26 sec) 
Heartbeat CPU  0 instructions:  598000002 cycles:  830760011 heartbeat IPC: 0.69039 cumulative IPC: 0.66252 (Simulation time: 0 hr 29 min 29 sec) 
Heartbeat CPU  0 instructions:  599000003 cycles:  832207826 heartbeat IPC: 0.69070 cumulative IPC: 0.66257 (Simulation time: 0 hr 29 min 32 sec) 
Heartbeat CPU  0 instructions:  600000000 cycles:  833651710 heartbeat IPC: 0.69257 cumulative IPC: 0.66263 (Simulation time: 0 hr 29 min 35 sec) 
Finished CPU 0 instructions: 500000000 cycles: 754566568 cumulative IPC: 0.66263 (Simulation time: 0 hr 29 min 35 sec) 

ChampSim completed all CPUs

[ROI Statistics]
Core_0_instructions 500000000
Core_0_cycles 754566568
Core_0_IPC 0.66263

Core_0_branch_prediction_accuracy 99.58640
Core_0_branch_MPKI 0.02120
Core_0_average_ROB_occupancy_at_mispredict 244.45316

Core_0_L1D_total_access 288640211
Core_0_L1D_total_hit 284330230
Core_0_L1D_total_miss 4309981
Core_0_L1D_loads 257661724
Core_0_L1D_load_hit 253352643
Core_0_L1D_load_miss 4309081
Core_0_L1D_RFOs 30978487
Core_0_L1D_RFO_hit 30977587
Core_0_L1D_RFO_miss 900
Core_0_L1D_prefetches 0
Core_0_L1D_prefetch_hit 0
Core_0_L1D_prefetch_miss 0
Core_0_L1D_writebacks 0
Core_0_L1D_writeback_hit 0
Core_0_L1D_writeback_miss 0
Core_0_L1D_prefetch_requested 0
Core_0_L1D_prefetch_dropped 0
Core_0_L1D_prefetch_issued 0
Core_0_L1D_prefetch_filled 0
Core_0_L1D_prefetch_useful 0
Core_0_L1D_prefetch_useless 0
Core_0_L1D_prefetch_late 0
Core_0_L1D_average_miss_latency 37.97852

Core_0_L1D_rq_access 307606063
Core_0_L1D_rq_forward 0
Core_0_L1D_rq_merged 49894211
Core_0_L1D_rq_to_cache 257688366
Core_0_L1D_rq_full 0

Core_0_L1D_wq_access 30978597
Core_0_L1D_wq_forward 23486
Core_0_L1D_wq_merged 0
Core_0_L1D_wq_to_cache 30978597
Core_0_L1D_wq_full 0

Core_0_L1D_pq_access 0
Core_0_L1D_pq_forward 0
Core_0_L1D_pq_merged 0
Core_0_L1D_pq_to_cache 0
Core_0_L1D_pq_full 0

Core_0_L1D_acc_epochs 800948
Core_0_L1D_acc_level_0 800948
Core_0_L1D_acc_level_1 0
Core_0_L1D_acc_level_2 0
Core_0_L1D_acc_level_3 0
Core_0_L1D_acc_level_4 0
Core_0_L1D_acc_level_5 0
Core_0_L1D_acc_level_6 0
Core_0_L1D_acc_level_7 0
Core_0_L1D_acc_level_8 0
Core_0_L1D_acc_level_9 0

Core_0_L1I_total_access 133871486
Core_0_L1I_total_hit 133871309
Core_0_L1I_total_miss 177
Core_0_L1I_loads 133871486
Core_0_L1I_load_hit 133871309
Core_0_L1I_load_miss 177
Core_0_L1I_RFOs 0
Core_0_L1I_RFO_hit 0
Core_0_L1I_RFO_miss 0
Core_0_L1I_prefetches 0
Core_0_L1I_prefetch_hit 0
Core_0_L1I_prefetch_miss 0
Core_0_L1I_writebacks 0
Core_0_L1I_writeback_hit 0
Core_0_L1I_writeback_miss 0
Core_0_L1I_prefetch_requested 0
Core_0_L1I_prefetch_dropped 0
Core_0_L1I_prefetch_issued 0
Core_0_L1I_prefetch_filled 0
Core_0_L1I_prefetch_useful 0
Core_0_L1I_prefetch_useless 0
Core_0_L1I_prefetch_late 0
Core_0_L1I_average_miss_latency 186.48023

Core_0_L1I_rq_access 500000003
Core_0_L1I_rq_forward 0
Core_0_L1I_rq_merged 366128439
Core_0_L1I_rq_to_cache 133871564
Core_0_L1I_rq_full 0

Core_0_L1I_wq_access 0
Core_0_L1I_wq_forward 0
Core_0_L1I_wq_merged 0
Core_0_L1I_wq_to_cache 0
Core_0_L1I_wq_full 0

Core_0_L1I_pq_access 0
Core_0_L1I_pq_forward 0
Core_0_L1I_pq_merged 0
Core_0_L1I_pq_to_cache 0
Core_0_L1I_pq_full 0

Core_0_L1I_acc_epochs 800948
Core_0_L1I_acc_level_0 800948
Core_0_L1I_acc_level_1 0
Core_0_L1I_acc_level_2 0
Core_0_L1I_acc_level_3 0
Core_0_L1I_acc_level_4 0
Core_0_L1I_acc_level_5 0
Core_0_L1I_acc_level_6 0
Core_0_L1I_acc_level_7 0
Core_0_L1I_acc_level_8 0
Core_0_L1I_acc_level_9 0

Core_0_L2C_total_access 10165837
Core_0_L2C_total_hit 6705037
Core_0_L2C_total_miss 3460800
Core_0_L2C_loads 4308357
Core_0_L2C_load_hit 2699819
Core_0_L2C_load_miss 1608538
Core_0_L2C_RFOs 783
Core_0_L2C_RFO_hit 761
Core_0_L2C_RFO_miss 22
Core_0_L2C_prefetches 3930682
Core_0_L2C_prefetch_hit 2078557
Core_0_L2C_prefetch_miss 1852125
Core_0_L2C_writebacks 1926015
Core_0_L2C_writeback_hit 1925900
Core_0_L2C_writeback_miss 115
Core_0_L2C_prefetch_requested 16674603
Core_0_L2C_prefetch_dropped 0
Core_0_L2C_prefetch_issued 16674603
Core_0_L2C_prefetch_filled 2226913
Core_0_L2C_prefetch_useful 2165632
Core_0_L2C_prefetch_useless 61205
Core_0_L2C_prefetch_late 92
Core_0_L2C_average_miss_latency 49.81797

Core_0_L2C_rq_access 4310158
Core_0_L2C_rq_forward 0
Core_0_L2C_rq_merged 0
Core_0_L2C_rq_to_cache 4309140
Core_0_L2C_rq_full 0

Core_0_L2C_wq_access 1926015
Core_0_L2C_wq_forward 1018
Core_0_L2C_wq_merged 0
Core_0_L2C_wq_to_cache 1926015
Core_0_L2C_wq_full 0

Core_0_L2C_pq_access 16674603
Core_0_L2C_pq_forward 0
Core_0_L2C_pq_merged 6954
Core_0_L2C_pq_to_cache 16667649
Core_0_L2C_pq_full 0

Core_0_L2C_acc_epochs 800948
Core_0_L2C_acc_level_0 79462
Core_0_L2C_acc_level_1 31525
Core_0_L2C_acc_level_2 35000
Core_0_L2C_acc_level_3 42607
Core_0_L2C_acc_level_4 43703
Core_0_L2C_acc_level_5 47284
Core_0_L2C_acc_level_6 48530
Core_0_L2C_acc_level_7 56291
Core_0_L2C_acc_level_8 71791
Core_0_L2C_acc_level_9 344755

Core_0_LLC_total_access 15858489
Core_0_LLC_total_hit 12407400
Core_0_LLC_total_miss 3451089
Core_0_LLC_loads 1608487
Core_0_LLC_load_hit 1351317
Core_0_LLC_load_miss 257170
Core_0_LLC_RFOs 22
Core_0_LLC_RFO_hit 10
Core_0_LLC_RFO_miss 12
Core_0_LLC_prefetches 12340519
Core_0_LLC_prefetch_hit 9152101
Core_0_LLC_prefetch_miss 3188418
Core_0_LLC_writebacks 1909461
Core_0_LLC_writeback_hit 1903972
Core_0_LLC_writeback_miss 5489
Core_0_LLC_prefetch_requested 0
Core_0_LLC_prefetch_dropped 0
Core_0_LLC_prefetch_issued 0
Core_0_LLC_prefetch_filled 3897251
Core_0_LLC_prefetch_useful 1528832
Core_0_LLC_prefetch_useless 2348859
Core_0_LLC_prefetch_late 412
Core_0_LLC_average_miss_latency 190.84774

Core_0_LLC_rq_access 1608509
Core_0_LLC_rq_forward 0
Core_0_LLC_rq_merged 0
Core_0_LLC_rq_to_cache 1608509
Core_0_LLC_rq_full 0

Core_0_LLC_wq_access 1909461
Core_0_LLC_wq_forward 0
Core_0_LLC_wq_merged 0
Core_0_LLC_wq_to_cache 1909461
Core_0_LLC_wq_full 0

Core_0_LLC_pq_access 14514243
Core_0_LLC_pq_forward 0
Core_0_LLC_pq_merged 49
Core_0_LLC_pq_to_cache 14514194
Core_0_LLC_pq_full 0

Core_0_LLC_acc_epochs 814114
Core_0_LLC_acc_level_0 86390
Core_0_LLC_acc_level_1 154190
Core_0_LLC_acc_level_2 155209
Core_0_LLC_acc_level_3 124390
Core_0_LLC_acc_level_4 82071
Core_0_LLC_acc_level_5 61223
Core_0_LLC_acc_level_6 42748
Core_0_LLC_acc_level_7 25681
Core_0_LLC_acc_level_8 17445
Core_0_LLC_acc_level_9 64767

Core_0_major_page_fault 0
Core_0_minor_page_fault 169020

spp.pref.total 16674603
spp.pref.at_L2 2529016
spp.pref.at_LLC 14145587

spp.depth.max 9
spp.depth.min 0
spp.depth.avg 3

spp.breadth.max 2
spp.breadth.min 0
spp.breadth.avg 0

delta_1 16077576
delta_28 553076
delta_30 319702
delta_-29 287637
delta_2 61432
delta_29 45576
delta_-1 5402
delta_3 4924
delta_-21 3189
delta_20 2433
delta_6 2116
delta_4 1850
delta_-13 1773
delta_24 1197
delta_-25 1126
delta_13 962
delta_-10 891
delta_57 875
delta_-2 869
delta_10 654
delta_-9 609
delta_16 414
delta_12 399
delta_-18 395
delta_-23 376
delta_-8 374
delta_-5 327
delta_23 285
delta_-17 275
delta_21 272
delta_-16 239
delta_14 238
delta_5 211
delta_26 185
delta_11 168
delta_-4 148
delta_8 143
delta_7 129
delta_-19 128
delta_19 126
delta_9 104
delta_-15 102
delta_-3 96
delta_-22 79
delta_-40 41
delta_-55 41
delta_-7 32
delta_-30 29
delta_31 28
delta_-54 19
delta_22 18
delta_17 17
delta_-56 17
delta_-39 10
delta_15 6
delta_32 6
delta_48 5
delta_-11 4
delta_34 4
delta_33 4
delta_50 3
delta_-12 2
delta_-26 1
delta_43 1
delta_-14 1
delta_58 1

depth_1_delta_1 4306781
depth_1_delta_28 304445
depth_1_delta_30 125583
depth_1_delta_-29 107874
depth_1_delta_29 43123
depth_1_delta_2 37805
depth_1_delta_-1 5176
depth_1_delta_3 4437
depth_1_delta_-21 2606
depth_1_delta_20 2172
depth_1_delta_6 2026
depth_1_delta_4 1809
depth_1_delta_-13 1679
depth_1_delta_24 1018
depth_1_delta_-25 924
depth_1_delta_-10 888
depth_1_delta_57 864
depth_1_delta_-2 854
depth_1_delta_13 649
depth_1_delta_10 588
depth_1_delta_-9 482
depth_1_delta_12 385
depth_1_delta_-23 374
depth_1_delta_-18 336
depth_1_delta_-8 328
depth_1_delta_16 319
depth_1_delta_-5 316
depth_1_delta_23 275
depth_1_delta_-17 271
depth_1_delta_21 271
depth_1_delta_14 228
depth_1_delta_5 206
depth_1_delta_-16 194
depth_1_delta_11 168
depth_1_delta_-4 147
depth_1_delta_8 141
depth_1_delta_7 127
depth_1_delta_-19 127
depth_1_delta_26 119
depth_1_delta_19 115
depth_1_delta_9 102
depth_1_delta_-15 99
depth_1_delta_-3 96
depth_1_delta_-22 79
depth_1_delta_-40 41
depth_1_delta_-55 41
depth_1_delta_-7 31
depth_1_delta_31 28
depth_1_delta_-30 26
depth_1_delta_-54 19
depth_1_delta_17 17
depth_1_delta_-56 17
depth_1_delta_22 16
depth_1_delta_-39 10
depth_1_delta_15 6
depth_1_delta_32 6
depth_1_delta_48 5
depth_1_delta_-11 4
depth_1_delta_34 4
depth_1_delta_33 4
depth_1_delta_50 3
depth_1_delta_-12 2
depth_1_delta_-26 1
depth_1_delta_43 1
depth_1_delta_-14 1
depth_1_delta_58 1
depth_2_delta_1 3771140
depth_2_delta_28 196338
depth_2_delta_30 87452
depth_2_delta_-29 81450
depth_2_delta_2 17413
depth_2_delta_29 2389
depth_2_delta_-21 581
depth_2_delta_3 478
depth_2_delta_13 312
depth_2_delta_20 257
depth_2_delta_-1 197
depth_2_delta_-25 182
depth_2_delta_24 179
depth_2_delta_-9 116
depth_2_delta_16 95
depth_2_delta_-13 94
depth_2_delta_6 90
depth_2_delta_10 66
depth_2_delta_-18 59
depth_2_delta_26 49
depth_2_delta_-8 46
depth_2_delta_-16 45
depth_2_delta_4 41
depth_2_delta_-2 15
depth_2_delta_12 14
depth_2_delta_19 11
depth_2_delta_-5 11
depth_2_delta_57 10
depth_2_delta_14 10
depth_2_delta_23 10
depth_2_delta_5 5
depth_2_delta_-17 4
depth_2_delta_-30 3
depth_2_delta_-15 3
depth_2_delta_-10 3
depth_2_delta_22 2
depth_2_delta_7 2
depth_2_delta_-23 2
depth_2_delta_9 2
depth_2_delta_8 2
depth_2_delta_-4 1
depth_2_delta_21 1
depth_2_delta_-19 1
depth_2_delta_-7 1
depth_3_delta_1 3136270
depth_3_delta_30 57976
depth_3_delta_28 48832
depth_3_delta_-29 45219
depth_3_delta_2 4598
depth_3_delta_29 64
depth_3_delta_-1 29
depth_3_delta_-25 20
depth_3_delta_26 17
depth_3_delta_-9 11
depth_3_delta_3 9
depth_3_delta_20 4
depth_3_delta_-21 2
depth_3_delta_13 1
depth_3_delta_57 1
depth_4_delta_1 2664084
depth_4_delta_-29 33868
depth_4_delta_30 30769
depth_4_delta_28 3391
depth_4_delta_2 1616
depth_5_delta_1 1704476
depth_5_delta_-29 17253
depth_5_delta_30 16255
depth_5_delta_28 70
depth_6_delta_1 412480
depth_6_delta_-29 1969
depth_6_delta_30 1665
depth_7_delta_1 78454
depth_7_delta_-29 4
depth_7_delta_30 2
depth_8_delta_1 3783
depth_9_delta_1 108

Channel_0_RQ_row_buffer_hit 1232670
Channel_0_RQ_row_buffer_miss 2212930
Channel_0_WQ_row_buffer_hit 212641
Channel_0_WQ_row_buffer_miss 1696137
Channel_0_WQ_full 0
Channel_0_dbus_congested 1335655

avg_congested_cycle 4

DRAM_bw_pochs 3256453
DRAM_bw_level_0 3221813
DRAM_bw_level_1 34271
DRAM_bw_level_2 354
DRAM_bw_level_3 15
