*************************************************
   ChampSim Multicore Out-of-Order Simulator
   Last compiled: Dec 11 2024 17:59:53
*************************************************
parsing config file: /home/functionmain/桌面/Pythia/config/bingo.ini

trace_0 /home/functionmain/桌面/Pythia/traces/459.GemsFDTD-1211B.champsimtrace.xz
adding L2C_PREFETCHER: Bingo
Initialize SHIP state
warmup_instructions 100000000
simulation_instructions 500000000
champsim_seed 263
measure_ipc 0
measure_ipc_epoch 1000
measure_dram_bw 1
measure_dram_bw_epoch 256
measure_cache_acc 1
measure_cache_acc_epoch 1024
l1d_perfect 0
l2c_perfect 0
llc_perfect 0
l1d_semi_perfect 0
l2c_semi_perfect 0
llc_semi_perfect 0
semi_perfect_cache_page_buffer_size 64

num_cpus 1
cpu_freq 4000
dram_io_freq 300
page_size 4096
block_size 64
max_read_per_cycle 8
max_fill_per_cycle 1
dram_channels 1
log2_dram_channels 0
dram_ranks 1
dram_banks 8
dram_rows 65536
dram_columns 128
dram_row_size 8
dram_size 4096
dram_pages 1048576

fetch_width 6
decode_width 6
exec_width 4
lq_width 2
sq_width 2
retire_width 4
scheduler_size 128
branch_mispredict_penalty 20
rob_size 256
lq_size 72
sq_size 56
num_instr_destinations_sparc 4
num_instr_destinations 2
num_instr_sources 4

itlb_set 16
itlb_way 8
itlb_rq_size 16
itlb_wq_size 16
itlb_pq_size 0
itlb_mshr_size 8
itlb_latency 1

dtlb_set 16
dtlb_way 4
dtlb_rq_size 16
dtlb_wq_size 16
dtlb_pq_size 0
dtlb_mshr_size 8
dtlb_latency 1

stlb_set 128
stlb_way 12
stlb_rq_size 32
stlb_wq_size 32
stlb_pq_size 0
stlb_mshr_size 16
stlb_latency 8

l1i_size 32
l1i_set 64
l1i_way 8
l1i_rq_size 64
l1i_wq_size 64
l1i_pq_size 8
l1i_mshr_size 8
l1i_latency 1

l1d_size 32
l1d_set 64
l1d_way 8
l1d_rq_size 64
l1d_wq_size 64
l1d_pq_size 8
l1d_mshr_size 16
l1d_latency 4

l2c_size 256
l2c_set 512
l2c_way 8
l2c_rq_size 32
l2c_wq_size 32
l2c_pq_size 32
l2c_mshr_size 32
l2c_latency 10

llc_size 2048
llc_set 2048
llc_way 16
llc_rq_size 32
llc_wq_size 32
llc_pq_size 32
llc_mshr_size 64
llc_latency 20

dram_channel_width 8
dram_wq_size 64
dram_rq_size 64
tRP 15
tRCD 15
tCAS 12.5
dram_dbus_turn_around_time 30
dram_write_high_wm 56
dram_write_low_wm 48
min_dram_writes_per_switch 16
dram_mtps 300
dram_dbus_return_time 106

bingo_region_size 2048
bingo_pattern_len 32
bingo_pc_width 16
bingo_min_addr_width 5
bingo_max_addr_width 16
bingo_ft_size 64
bingo_at_size 128
bingo_pht_size 4096
bingo_pht_ways 16
bingo_pf_streamer_size 128
bingo_debug_level 0
bingo_l1d_thresh 1.01
bingo_l2c_thresh 0.8
bingo_llc_thresh 0.05
bingo_pc_address_fill_level L2


Heartbeat CPU  0 instructions:    1000003 cycles:     792437 heartbeat IPC: 1.26193 cumulative IPC: 1.26193 (Simulation time: 0 hr 0 min 2 sec) 
Heartbeat CPU  0 instructions:    2000002 cycles:    1584171 heartbeat IPC: 1.26305 cumulative IPC: 1.26249 (Simulation time: 0 hr 0 min 5 sec) 
Heartbeat CPU  0 instructions:    3000003 cycles:    2375955 heartbeat IPC: 1.26297 cumulative IPC: 1.26265 (Simulation time: 0 hr 0 min 8 sec) 
Heartbeat CPU  0 instructions:    4000000 cycles:    3167748 heartbeat IPC: 1.26295 cumulative IPC: 1.26273 (Simulation time: 0 hr 0 min 10 sec) 
Heartbeat CPU  0 instructions:    5000000 cycles:    3959644 heartbeat IPC: 1.26279 cumulative IPC: 1.26274 (Simulation time: 0 hr 0 min 13 sec) 
Heartbeat CPU  0 instructions:    6000002 cycles:    4751420 heartbeat IPC: 1.26299 cumulative IPC: 1.26278 (Simulation time: 0 hr 0 min 15 sec) 
Heartbeat CPU  0 instructions:    7000000 cycles:    5543132 heartbeat IPC: 1.26308 cumulative IPC: 1.26282 (Simulation time: 0 hr 0 min 18 sec) 
Heartbeat CPU  0 instructions:    8000000 cycles:    6335037 heartbeat IPC: 1.26278 cumulative IPC: 1.26282 (Simulation time: 0 hr 0 min 21 sec) 
Heartbeat CPU  0 instructions:    9000000 cycles:    7126838 heartbeat IPC: 1.26294 cumulative IPC: 1.26283 (Simulation time: 0 hr 0 min 24 sec) 
Heartbeat CPU  0 instructions:   10000001 cycles:    7918441 heartbeat IPC: 1.26326 cumulative IPC: 1.26287 (Simulation time: 0 hr 0 min 26 sec) 
Heartbeat CPU  0 instructions:   11000000 cycles:    8709976 heartbeat IPC: 1.26337 cumulative IPC: 1.26292 (Simulation time: 0 hr 0 min 29 sec) 
Heartbeat CPU  0 instructions:   12000000 cycles:    9501805 heartbeat IPC: 1.26290 cumulative IPC: 1.26292 (Simulation time: 0 hr 0 min 31 sec) 
Heartbeat CPU  0 instructions:   13000000 cycles:   10293637 heartbeat IPC: 1.26289 cumulative IPC: 1.26292 (Simulation time: 0 hr 0 min 34 sec) 
Heartbeat CPU  0 instructions:   14000002 cycles:   11085335 heartbeat IPC: 1.26311 cumulative IPC: 1.26293 (Simulation time: 0 hr 0 min 36 sec) 
Heartbeat CPU  0 instructions:   15000000 cycles:   11877176 heartbeat IPC: 1.26288 cumulative IPC: 1.26293 (Simulation time: 0 hr 0 min 39 sec) 
Heartbeat CPU  0 instructions:   16000000 cycles:   12668896 heartbeat IPC: 1.26307 cumulative IPC: 1.26294 (Simulation time: 0 hr 0 min 42 sec) 
Heartbeat CPU  0 instructions:   17000001 cycles:   13460729 heartbeat IPC: 1.26289 cumulative IPC: 1.26293 (Simulation time: 0 hr 0 min 44 sec) 
Heartbeat CPU  0 instructions:   18000002 cycles:   14252433 heartbeat IPC: 1.26310 cumulative IPC: 1.26294 (Simulation time: 0 hr 0 min 47 sec) 
Heartbeat CPU  0 instructions:   19000000 cycles:   15044187 heartbeat IPC: 1.26302 cumulative IPC: 1.26295 (Simulation time: 0 hr 0 min 49 sec) 
Heartbeat CPU  0 instructions:   20000000 cycles:   15835595 heartbeat IPC: 1.26357 cumulative IPC: 1.26298 (Simulation time: 0 hr 0 min 52 sec) 
Heartbeat CPU  0 instructions:   21000000 cycles:   16627158 heartbeat IPC: 1.26332 cumulative IPC: 1.26299 (Simulation time: 0 hr 0 min 54 sec) 
Heartbeat CPU  0 instructions:   22000003 cycles:   17418895 heartbeat IPC: 1.26305 cumulative IPC: 1.26300 (Simulation time: 0 hr 0 min 57 sec) 
Heartbeat CPU  0 instructions:   23000000 cycles:   18210691 heartbeat IPC: 1.26295 cumulative IPC: 1.26299 (Simulation time: 0 hr 1 min 0 sec) 
Heartbeat CPU  0 instructions:   24000000 cycles:   19002483 heartbeat IPC: 1.26296 cumulative IPC: 1.26299 (Simulation time: 0 hr 1 min 2 sec) 
Heartbeat CPU  0 instructions:   25000001 cycles:   19794289 heartbeat IPC: 1.26294 cumulative IPC: 1.26299 (Simulation time: 0 hr 1 min 5 sec) 
Heartbeat CPU  0 instructions:   26000002 cycles:   20586113 heartbeat IPC: 1.26291 cumulative IPC: 1.26299 (Simulation time: 0 hr 1 min 7 sec) 
Heartbeat CPU  0 instructions:   27000001 cycles:   21377757 heartbeat IPC: 1.26319 cumulative IPC: 1.26300 (Simulation time: 0 hr 1 min 10 sec) 
Heartbeat CPU  0 instructions:   28000000 cycles:   22169600 heartbeat IPC: 1.26288 cumulative IPC: 1.26299 (Simulation time: 0 hr 1 min 12 sec) 
Heartbeat CPU  0 instructions:   29000001 cycles:   22961385 heartbeat IPC: 1.26297 cumulative IPC: 1.26299 (Simulation time: 0 hr 1 min 15 sec) 
Heartbeat CPU  0 instructions:   30000002 cycles:   23753052 heartbeat IPC: 1.26316 cumulative IPC: 1.26300 (Simulation time: 0 hr 1 min 18 sec) 
Heartbeat CPU  0 instructions:   31000001 cycles:   24544678 heartbeat IPC: 1.26322 cumulative IPC: 1.26300 (Simulation time: 0 hr 1 min 20 sec) 
Heartbeat CPU  0 instructions:   32000000 cycles:   25336113 heartbeat IPC: 1.26353 cumulative IPC: 1.26302 (Simulation time: 0 hr 1 min 23 sec) 
Heartbeat CPU  0 instructions:   33000001 cycles:   26127931 heartbeat IPC: 1.26292 cumulative IPC: 1.26302 (Simulation time: 0 hr 1 min 25 sec) 
Heartbeat CPU  0 instructions:   34000003 cycles:   26919701 heartbeat IPC: 1.26300 cumulative IPC: 1.26302 (Simulation time: 0 hr 1 min 28 sec) 
Heartbeat CPU  0 instructions:   35000001 cycles:   27711408 heartbeat IPC: 1.26309 cumulative IPC: 1.26302 (Simulation time: 0 hr 1 min 31 sec) 
Heartbeat CPU  0 instructions:   36000000 cycles:   28503252 heartbeat IPC: 1.26287 cumulative IPC: 1.26301 (Simulation time: 0 hr 1 min 33 sec) 
Heartbeat CPU  0 instructions:   37000000 cycles:   29295089 heartbeat IPC: 1.26289 cumulative IPC: 1.26301 (Simulation time: 0 hr 1 min 36 sec) 
Heartbeat CPU  0 instructions:   38000000 cycles:   30086791 heartbeat IPC: 1.26310 cumulative IPC: 1.26301 (Simulation time: 0 hr 1 min 38 sec) 
Heartbeat CPU  0 instructions:   39000001 cycles:   30878516 heartbeat IPC: 1.26307 cumulative IPC: 1.26301 (Simulation time: 0 hr 1 min 41 sec) 
Heartbeat CPU  0 instructions:   40000000 cycles:   31661244 heartbeat IPC: 1.27758 cumulative IPC: 1.26337 (Simulation time: 0 hr 1 min 43 sec) 
Heartbeat CPU  0 instructions:   41000001 cycles:   32434269 heartbeat IPC: 1.29362 cumulative IPC: 1.26410 (Simulation time: 0 hr 1 min 46 sec) 
Heartbeat CPU  0 instructions:   42000003 cycles:   33206996 heartbeat IPC: 1.29412 cumulative IPC: 1.26479 (Simulation time: 0 hr 1 min 49 sec) 
Heartbeat CPU  0 instructions:   43000001 cycles:   33982822 heartbeat IPC: 1.28895 cumulative IPC: 1.26535 (Simulation time: 0 hr 1 min 52 sec) 
Heartbeat CPU  0 instructions:   44000000 cycles:   34774302 heartbeat IPC: 1.26345 cumulative IPC: 1.26530 (Simulation time: 0 hr 1 min 54 sec) 
Heartbeat CPU  0 instructions:   45000001 cycles:   35565626 heartbeat IPC: 1.26371 cumulative IPC: 1.26527 (Simulation time: 0 hr 1 min 57 sec) 
Heartbeat CPU  0 instructions:   46000003 cycles:   36357216 heartbeat IPC: 1.26328 cumulative IPC: 1.26522 (Simulation time: 0 hr 2 min 0 sec) 
Heartbeat CPU  0 instructions:   47000001 cycles:   37148494 heartbeat IPC: 1.26378 cumulative IPC: 1.26519 (Simulation time: 0 hr 2 min 2 sec) 
Heartbeat CPU  0 instructions:   48000000 cycles:   37939905 heartbeat IPC: 1.26356 cumulative IPC: 1.26516 (Simulation time: 0 hr 2 min 5 sec) 
Heartbeat CPU  0 instructions:   49000001 cycles:   38731112 heartbeat IPC: 1.26389 cumulative IPC: 1.26513 (Simulation time: 0 hr 2 min 7 sec) 
Heartbeat CPU  0 instructions:   50000003 cycles:   39522243 heartbeat IPC: 1.26402 cumulative IPC: 1.26511 (Simulation time: 0 hr 2 min 10 sec) 
Heartbeat CPU  0 instructions:   51000001 cycles:   40313736 heartbeat IPC: 1.26343 cumulative IPC: 1.26508 (Simulation time: 0 hr 2 min 13 sec) 
Heartbeat CPU  0 instructions:   52000000 cycles:   41105135 heartbeat IPC: 1.26358 cumulative IPC: 1.26505 (Simulation time: 0 hr 2 min 15 sec) 
Heartbeat CPU  0 instructions:   53000003 cycles:   41896707 heartbeat IPC: 1.26331 cumulative IPC: 1.26502 (Simulation time: 0 hr 2 min 18 sec) 
Heartbeat CPU  0 instructions:   54000002 cycles:   42688174 heartbeat IPC: 1.26348 cumulative IPC: 1.26499 (Simulation time: 0 hr 2 min 20 sec) 
Heartbeat CPU  0 instructions:   55000001 cycles:   43479514 heartbeat IPC: 1.26368 cumulative IPC: 1.26496 (Simulation time: 0 hr 2 min 23 sec) 
Heartbeat CPU  0 instructions:   56000000 cycles:   44270727 heartbeat IPC: 1.26388 cumulative IPC: 1.26494 (Simulation time: 0 hr 2 min 26 sec) 
Heartbeat CPU  0 instructions:   57000000 cycles:   45062253 heartbeat IPC: 1.26338 cumulative IPC: 1.26492 (Simulation time: 0 hr 2 min 28 sec) 
Heartbeat CPU  0 instructions:   58000002 cycles:   45853584 heartbeat IPC: 1.26370 cumulative IPC: 1.26490 (Simulation time: 0 hr 2 min 31 sec) 
Heartbeat CPU  0 instructions:   59000000 cycles:   46645038 heartbeat IPC: 1.26349 cumulative IPC: 1.26487 (Simulation time: 0 hr 2 min 33 sec) 
Heartbeat CPU  0 instructions:   60000000 cycles:   47436327 heartbeat IPC: 1.26376 cumulative IPC: 1.26485 (Simulation time: 0 hr 2 min 36 sec) 
Heartbeat CPU  0 instructions:   61000000 cycles:   48227431 heartbeat IPC: 1.26406 cumulative IPC: 1.26484 (Simulation time: 0 hr 2 min 39 sec) 
Heartbeat CPU  0 instructions:   62000002 cycles:   49019033 heartbeat IPC: 1.26326 cumulative IPC: 1.26481 (Simulation time: 0 hr 2 min 41 sec) 
Heartbeat CPU  0 instructions:   63000000 cycles:   49810482 heartbeat IPC: 1.26350 cumulative IPC: 1.26479 (Simulation time: 0 hr 2 min 44 sec) 
Heartbeat CPU  0 instructions:   64000000 cycles:   50601823 heartbeat IPC: 1.26368 cumulative IPC: 1.26478 (Simulation time: 0 hr 2 min 46 sec) 
Heartbeat CPU  0 instructions:   65000000 cycles:   51393403 heartbeat IPC: 1.26330 cumulative IPC: 1.26475 (Simulation time: 0 hr 2 min 49 sec) 
Heartbeat CPU  0 instructions:   66000003 cycles:   52184689 heartbeat IPC: 1.26377 cumulative IPC: 1.26474 (Simulation time: 0 hr 2 min 52 sec) 
Heartbeat CPU  0 instructions:   67000000 cycles:   52976072 heartbeat IPC: 1.26361 cumulative IPC: 1.26472 (Simulation time: 0 hr 2 min 54 sec) 
Heartbeat CPU  0 instructions:   68000000 cycles:   53767298 heartbeat IPC: 1.26386 cumulative IPC: 1.26471 (Simulation time: 0 hr 2 min 57 sec) 
Heartbeat CPU  0 instructions:   69000001 cycles:   54558702 heartbeat IPC: 1.26358 cumulative IPC: 1.26469 (Simulation time: 0 hr 2 min 59 sec) 
Heartbeat CPU  0 instructions:   70000002 cycles:   55349953 heartbeat IPC: 1.26382 cumulative IPC: 1.26468 (Simulation time: 0 hr 3 min 2 sec) 
Heartbeat CPU  0 instructions:   71000001 cycles:   56141330 heartbeat IPC: 1.26362 cumulative IPC: 1.26467 (Simulation time: 0 hr 3 min 5 sec) 
Heartbeat CPU  0 instructions:   72000000 cycles:   56932458 heartbeat IPC: 1.26402 cumulative IPC: 1.26466 (Simulation time: 0 hr 3 min 7 sec) 
Heartbeat CPU  0 instructions:   73000003 cycles:   57724187 heartbeat IPC: 1.26306 cumulative IPC: 1.26463 (Simulation time: 0 hr 3 min 11 sec) 
Heartbeat CPU  0 instructions:   74000003 cycles:   58515428 heartbeat IPC: 1.26384 cumulative IPC: 1.26462 (Simulation time: 0 hr 3 min 14 sec) 
Heartbeat CPU  0 instructions:   75000001 cycles:   59306800 heartbeat IPC: 1.26363 cumulative IPC: 1.26461 (Simulation time: 0 hr 3 min 17 sec) 
Heartbeat CPU  0 instructions:   76000000 cycles:   60098386 heartbeat IPC: 1.26329 cumulative IPC: 1.26459 (Simulation time: 0 hr 3 min 19 sec) 
Heartbeat CPU  0 instructions:   77000002 cycles:   60889630 heartbeat IPC: 1.26384 cumulative IPC: 1.26458 (Simulation time: 0 hr 3 min 22 sec) 
Heartbeat CPU  0 instructions:   78000001 cycles:   61681046 heartbeat IPC: 1.26356 cumulative IPC: 1.26457 (Simulation time: 0 hr 3 min 25 sec) 
Heartbeat CPU  0 instructions:   79000000 cycles:   62472315 heartbeat IPC: 1.26379 cumulative IPC: 1.26456 (Simulation time: 0 hr 3 min 28 sec) 
Heartbeat CPU  0 instructions:   80000000 cycles:   63263720 heartbeat IPC: 1.26358 cumulative IPC: 1.26455 (Simulation time: 0 hr 3 min 31 sec) 
Heartbeat CPU  0 instructions:   81000000 cycles:   64055018 heartbeat IPC: 1.26375 cumulative IPC: 1.26454 (Simulation time: 0 hr 3 min 34 sec) 
Heartbeat CPU  0 instructions:   82000002 cycles:   64846271 heartbeat IPC: 1.26382 cumulative IPC: 1.26453 (Simulation time: 0 hr 3 min 36 sec) 
Heartbeat CPU  0 instructions:   83000000 cycles:   65637599 heartbeat IPC: 1.26370 cumulative IPC: 1.26452 (Simulation time: 0 hr 3 min 39 sec) 
Heartbeat CPU  0 instructions:   84000000 cycles:   66428941 heartbeat IPC: 1.26368 cumulative IPC: 1.26451 (Simulation time: 0 hr 3 min 42 sec) 
Heartbeat CPU  0 instructions:   85000000 cycles:   67220322 heartbeat IPC: 1.26361 cumulative IPC: 1.26450 (Simulation time: 0 hr 3 min 45 sec) 
Heartbeat CPU  0 instructions:   86000002 cycles:   68011582 heartbeat IPC: 1.26381 cumulative IPC: 1.26449 (Simulation time: 0 hr 3 min 48 sec) 
Heartbeat CPU  0 instructions:   87000000 cycles:   68802915 heartbeat IPC: 1.26369 cumulative IPC: 1.26448 (Simulation time: 0 hr 3 min 51 sec) 
Heartbeat CPU  0 instructions:   88000000 cycles:   69594113 heartbeat IPC: 1.26391 cumulative IPC: 1.26447 (Simulation time: 0 hr 3 min 54 sec) 
Heartbeat CPU  0 instructions:   89000000 cycles:   70385566 heartbeat IPC: 1.26350 cumulative IPC: 1.26446 (Simulation time: 0 hr 3 min 56 sec) 
Heartbeat CPU  0 instructions:   90000003 cycles:   71176818 heartbeat IPC: 1.26382 cumulative IPC: 1.26446 (Simulation time: 0 hr 3 min 59 sec) 
Heartbeat CPU  0 instructions:   91000000 cycles:   71968023 heartbeat IPC: 1.26389 cumulative IPC: 1.26445 (Simulation time: 0 hr 4 min 2 sec) 
Heartbeat CPU  0 instructions:   92000000 cycles:   72759355 heartbeat IPC: 1.26369 cumulative IPC: 1.26444 (Simulation time: 0 hr 4 min 5 sec) 
Heartbeat CPU  0 instructions:   93000001 cycles:   73550553 heartbeat IPC: 1.26391 cumulative IPC: 1.26444 (Simulation time: 0 hr 4 min 8 sec) 
Heartbeat CPU  0 instructions:   94000001 cycles:   74342011 heartbeat IPC: 1.26349 cumulative IPC: 1.26443 (Simulation time: 0 hr 4 min 10 sec) 
Heartbeat CPU  0 instructions:   95000000 cycles:   75133224 heartbeat IPC: 1.26388 cumulative IPC: 1.26442 (Simulation time: 0 hr 4 min 13 sec) 
Heartbeat CPU  0 instructions:   96000000 cycles:   75924483 heartbeat IPC: 1.26381 cumulative IPC: 1.26441 (Simulation time: 0 hr 4 min 16 sec) 
Heartbeat CPU  0 instructions:   97000003 cycles:   76715975 heartbeat IPC: 1.26344 cumulative IPC: 1.26440 (Simulation time: 0 hr 4 min 19 sec) 
Heartbeat CPU  0 instructions:   98000003 cycles:   77507253 heartbeat IPC: 1.26378 cumulative IPC: 1.26440 (Simulation time: 0 hr 4 min 22 sec) 
Heartbeat CPU  0 instructions:   99000003 cycles:   78298504 heartbeat IPC: 1.26382 cumulative IPC: 1.26439 (Simulation time: 0 hr 4 min 24 sec) 
Heartbeat CPU  0 instructions:  100000000 cycles:   79089769 heartbeat IPC: 1.26380 cumulative IPC: 1.26439 (Simulation time: 0 hr 4 min 27 sec) 

Warmup complete CPU  0 instructions:  100000001 cycles:   79089770 (Simulation time: 0 hr 4 min 27 sec) 

Heartbeat CPU  0 instructions:  101000001 cycles:   81272235 heartbeat IPC: 0.45820 cumulative IPC: 0.45820 (Simulation time: 0 hr 4 min 31 sec) 
Heartbeat CPU  0 instructions:  102000002 cycles:   83462953 heartbeat IPC: 0.45647 cumulative IPC: 0.45733 (Simulation time: 0 hr 4 min 35 sec) 
Heartbeat CPU  0 instructions:  103000003 cycles:   85648729 heartbeat IPC: 0.45750 cumulative IPC: 0.45739 (Simulation time: 0 hr 4 min 39 sec) 
Heartbeat CPU  0 instructions:  104000000 cycles:   87823832 heartbeat IPC: 0.45975 cumulative IPC: 0.45798 (Simulation time: 0 hr 4 min 43 sec) 
Heartbeat CPU  0 instructions:  105000001 cycles:   90013133 heartbeat IPC: 0.45677 cumulative IPC: 0.45773 (Simulation time: 0 hr 4 min 47 sec) 
Heartbeat CPU  0 instructions:  106000002 cycles:   92197370 heartbeat IPC: 0.45783 cumulative IPC: 0.45775 (Simulation time: 0 hr 4 min 51 sec) 
Heartbeat CPU  0 instructions:  107000000 cycles:   94378687 heartbeat IPC: 0.45844 cumulative IPC: 0.45785 (Simulation time: 0 hr 4 min 55 sec) 
Heartbeat CPU  0 instructions:  108000000 cycles:   96557872 heartbeat IPC: 0.45889 cumulative IPC: 0.45798 (Simulation time: 0 hr 4 min 58 sec) 
Heartbeat CPU  0 instructions:  109000000 cycles:   98744440 heartbeat IPC: 0.45734 cumulative IPC: 0.45791 (Simulation time: 0 hr 5 min 2 sec) 
Heartbeat CPU  0 instructions:  110000002 cycles:  100923196 heartbeat IPC: 0.45898 cumulative IPC: 0.45801 (Simulation time: 0 hr 5 min 6 sec) 
Heartbeat CPU  0 instructions:  111000001 cycles:  103106235 heartbeat IPC: 0.45808 cumulative IPC: 0.45802 (Simulation time: 0 hr 5 min 10 sec) 
Heartbeat CPU  0 instructions:  112000000 cycles:  105288453 heartbeat IPC: 0.45825 cumulative IPC: 0.45804 (Simulation time: 0 hr 5 min 14 sec) 
Heartbeat CPU  0 instructions:  113000000 cycles:  107484919 heartbeat IPC: 0.45528 cumulative IPC: 0.45782 (Simulation time: 0 hr 5 min 18 sec) 
Heartbeat CPU  0 instructions:  114000002 cycles:  109675482 heartbeat IPC: 0.45650 cumulative IPC: 0.45773 (Simulation time: 0 hr 5 min 22 sec) 
Heartbeat CPU  0 instructions:  115000002 cycles:  111852309 heartbeat IPC: 0.45938 cumulative IPC: 0.45784 (Simulation time: 0 hr 5 min 26 sec) 
Heartbeat CPU  0 instructions:  116000000 cycles:  114046158 heartbeat IPC: 0.45582 cumulative IPC: 0.45771 (Simulation time: 0 hr 5 min 30 sec) 
Heartbeat CPU  0 instructions:  117000001 cycles:  116232745 heartbeat IPC: 0.45733 cumulative IPC: 0.45769 (Simulation time: 0 hr 5 min 33 sec) 
Heartbeat CPU  0 instructions:  118000000 cycles:  118420534 heartbeat IPC: 0.45708 cumulative IPC: 0.45766 (Simulation time: 0 hr 5 min 37 sec) 
Heartbeat CPU  0 instructions:  119000000 cycles:  120606057 heartbeat IPC: 0.45756 cumulative IPC: 0.45765 (Simulation time: 0 hr 5 min 41 sec) 
Heartbeat CPU  0 instructions:  120000000 cycles:  122787765 heartbeat IPC: 0.45836 cumulative IPC: 0.45769 (Simulation time: 0 hr 5 min 44 sec) 
Heartbeat CPU  0 instructions:  121000003 cycles:  124971939 heartbeat IPC: 0.45784 cumulative IPC: 0.45769 (Simulation time: 0 hr 5 min 48 sec) 
Heartbeat CPU  0 instructions:  122000001 cycles:  127151992 heartbeat IPC: 0.45870 cumulative IPC: 0.45774 (Simulation time: 0 hr 5 min 51 sec) 
Heartbeat CPU  0 instructions:  123000000 cycles:  129332429 heartbeat IPC: 0.45862 cumulative IPC: 0.45778 (Simulation time: 0 hr 5 min 55 sec) 
Heartbeat CPU  0 instructions:  124000000 cycles:  131523871 heartbeat IPC: 0.45632 cumulative IPC: 0.45772 (Simulation time: 0 hr 5 min 58 sec) 
Heartbeat CPU  0 instructions:  125000001 cycles:  133702474 heartbeat IPC: 0.45901 cumulative IPC: 0.45777 (Simulation time: 0 hr 6 min 2 sec) 
Heartbeat CPU  0 instructions:  126000001 cycles:  135903010 heartbeat IPC: 0.45443 cumulative IPC: 0.45764 (Simulation time: 0 hr 6 min 6 sec) 
Heartbeat CPU  0 instructions:  127000003 cycles:  138084272 heartbeat IPC: 0.45845 cumulative IPC: 0.45767 (Simulation time: 0 hr 6 min 9 sec) 
Heartbeat CPU  0 instructions:  128000000 cycles:  140265264 heartbeat IPC: 0.45851 cumulative IPC: 0.45770 (Simulation time: 0 hr 6 min 13 sec) 
Heartbeat CPU  0 instructions:  129000003 cycles:  142450052 heartbeat IPC: 0.45771 cumulative IPC: 0.45770 (Simulation time: 0 hr 6 min 17 sec) 
Heartbeat CPU  0 instructions:  130000001 cycles:  144638670 heartbeat IPC: 0.45691 cumulative IPC: 0.45767 (Simulation time: 0 hr 6 min 20 sec) 
Heartbeat CPU  0 instructions:  131000000 cycles:  146806710 heartbeat IPC: 0.46125 cumulative IPC: 0.45779 (Simulation time: 0 hr 6 min 24 sec) 
Heartbeat CPU  0 instructions:  132000000 cycles:  148985073 heartbeat IPC: 0.45906 cumulative IPC: 0.45783 (Simulation time: 0 hr 6 min 27 sec) 
Heartbeat CPU  0 instructions:  133000000 cycles:  151170026 heartbeat IPC: 0.45768 cumulative IPC: 0.45782 (Simulation time: 0 hr 6 min 31 sec) 
Heartbeat CPU  0 instructions:  134000002 cycles:  153344489 heartbeat IPC: 0.45988 cumulative IPC: 0.45788 (Simulation time: 0 hr 6 min 34 sec) 
Heartbeat CPU  0 instructions:  135000003 cycles:  155534955 heartbeat IPC: 0.45652 cumulative IPC: 0.45784 (Simulation time: 0 hr 6 min 38 sec) 
Heartbeat CPU  0 instructions:  136000000 cycles:  157709422 heartbeat IPC: 0.45988 cumulative IPC: 0.45790 (Simulation time: 0 hr 6 min 41 sec) 
Heartbeat CPU  0 instructions:  137000000 cycles:  159903539 heartbeat IPC: 0.45576 cumulative IPC: 0.45784 (Simulation time: 0 hr 6 min 45 sec) 
Heartbeat CPU  0 instructions:  138000000 cycles:  162101162 heartbeat IPC: 0.45504 cumulative IPC: 0.45777 (Simulation time: 0 hr 6 min 49 sec) 
Heartbeat CPU  0 instructions:  139000002 cycles:  164276108 heartbeat IPC: 0.45978 cumulative IPC: 0.45782 (Simulation time: 0 hr 6 min 52 sec) 
Heartbeat CPU  0 instructions:  140000000 cycles:  166461623 heartbeat IPC: 0.45756 cumulative IPC: 0.45781 (Simulation time: 0 hr 6 min 56 sec) 
Heartbeat CPU  0 instructions:  141000002 cycles:  168653399 heartbeat IPC: 0.45625 cumulative IPC: 0.45778 (Simulation time: 0 hr 6 min 59 sec) 
Heartbeat CPU  0 instructions:  142000000 cycles:  170827973 heartbeat IPC: 0.45986 cumulative IPC: 0.45782 (Simulation time: 0 hr 7 min 3 sec) 
Heartbeat CPU  0 instructions:  143000003 cycles:  173021004 heartbeat IPC: 0.45599 cumulative IPC: 0.45778 (Simulation time: 0 hr 7 min 6 sec) 
Heartbeat CPU  0 instructions:  144000000 cycles:  175205832 heartbeat IPC: 0.45770 cumulative IPC: 0.45778 (Simulation time: 0 hr 7 min 10 sec) 
Heartbeat CPU  0 instructions:  145000003 cycles:  177394991 heartbeat IPC: 0.45680 cumulative IPC: 0.45776 (Simulation time: 0 hr 7 min 13 sec) 
Heartbeat CPU  0 instructions:  146000001 cycles:  179572614 heartbeat IPC: 0.45922 cumulative IPC: 0.45779 (Simulation time: 0 hr 7 min 17 sec) 
Heartbeat CPU  0 instructions:  147000003 cycles:  181747654 heartbeat IPC: 0.45976 cumulative IPC: 0.45783 (Simulation time: 0 hr 7 min 20 sec) 
Heartbeat CPU  0 instructions:  148000000 cycles:  183915129 heartbeat IPC: 0.46136 cumulative IPC: 0.45790 (Simulation time: 0 hr 7 min 24 sec) 
Heartbeat CPU  0 instructions:  149000003 cycles:  186091848 heartbeat IPC: 0.45941 cumulative IPC: 0.45794 (Simulation time: 0 hr 7 min 27 sec) 
Heartbeat CPU  0 instructions:  150000001 cycles:  188260809 heartbeat IPC: 0.46105 cumulative IPC: 0.45800 (Simulation time: 0 hr 7 min 31 sec) 
Heartbeat CPU  0 instructions:  151000003 cycles:  190431096 heartbeat IPC: 0.46077 cumulative IPC: 0.45805 (Simulation time: 0 hr 7 min 34 sec) 
Heartbeat CPU  0 instructions:  152000000 cycles:  192604239 heartbeat IPC: 0.46016 cumulative IPC: 0.45809 (Simulation time: 0 hr 7 min 38 sec) 
Heartbeat CPU  0 instructions:  153000003 cycles:  194765163 heartbeat IPC: 0.46277 cumulative IPC: 0.45818 (Simulation time: 0 hr 7 min 41 sec) 
Heartbeat CPU  0 instructions:  154000001 cycles:  196926680 heartbeat IPC: 0.46264 cumulative IPC: 0.45826 (Simulation time: 0 hr 7 min 45 sec) 
Heartbeat CPU  0 instructions:  155000001 cycles:  199077704 heartbeat IPC: 0.46489 cumulative IPC: 0.45838 (Simulation time: 0 hr 7 min 48 sec) 
Heartbeat CPU  0 instructions:  156000000 cycles:  201250218 heartbeat IPC: 0.46030 cumulative IPC: 0.45841 (Simulation time: 0 hr 7 min 51 sec) 
Heartbeat CPU  0 instructions:  157000001 cycles:  203422509 heartbeat IPC: 0.46034 cumulative IPC: 0.45845 (Simulation time: 0 hr 7 min 55 sec) 
Heartbeat CPU  0 instructions:  158000003 cycles:  205581806 heartbeat IPC: 0.46311 cumulative IPC: 0.45853 (Simulation time: 0 hr 7 min 58 sec) 
Heartbeat CPU  0 instructions:  159000003 cycles:  207755747 heartbeat IPC: 0.45999 cumulative IPC: 0.45855 (Simulation time: 0 hr 8 min 2 sec) 
Heartbeat CPU  0 instructions:  160000000 cycles:  209925008 heartbeat IPC: 0.46099 cumulative IPC: 0.45859 (Simulation time: 0 hr 8 min 5 sec) 
Heartbeat CPU  0 instructions:  161000002 cycles:  212081608 heartbeat IPC: 0.46369 cumulative IPC: 0.45867 (Simulation time: 0 hr 8 min 9 sec) 
Heartbeat CPU  0 instructions:  162000000 cycles:  214256353 heartbeat IPC: 0.45982 cumulative IPC: 0.45869 (Simulation time: 0 hr 8 min 12 sec) 
Heartbeat CPU  0 instructions:  163000000 cycles:  216416496 heartbeat IPC: 0.46293 cumulative IPC: 0.45876 (Simulation time: 0 hr 8 min 16 sec) 
Heartbeat CPU  0 instructions:  164000000 cycles:  218584232 heartbeat IPC: 0.46131 cumulative IPC: 0.45880 (Simulation time: 0 hr 8 min 19 sec) 
Heartbeat CPU  0 instructions:  165000002 cycles:  220754938 heartbeat IPC: 0.46068 cumulative IPC: 0.45883 (Simulation time: 0 hr 8 min 23 sec) 
Heartbeat CPU  0 instructions:  166000003 cycles:  222926823 heartbeat IPC: 0.46043 cumulative IPC: 0.45885 (Simulation time: 0 hr 8 min 26 sec) 
Heartbeat CPU  0 instructions:  167000002 cycles:  225097076 heartbeat IPC: 0.46078 cumulative IPC: 0.45888 (Simulation time: 0 hr 8 min 30 sec) 
Heartbeat CPU  0 instructions:  168000000 cycles:  227268604 heartbeat IPC: 0.46050 cumulative IPC: 0.45890 (Simulation time: 0 hr 8 min 33 sec) 
Heartbeat CPU  0 instructions:  169000001 cycles:  229444803 heartbeat IPC: 0.45952 cumulative IPC: 0.45891 (Simulation time: 0 hr 8 min 37 sec) 
Heartbeat CPU  0 instructions:  170000000 cycles:  231616126 heartbeat IPC: 0.46055 cumulative IPC: 0.45894 (Simulation time: 0 hr 8 min 40 sec) 
Heartbeat CPU  0 instructions:  171000003 cycles:  233784365 heartbeat IPC: 0.46121 cumulative IPC: 0.45897 (Simulation time: 0 hr 8 min 44 sec) 
Heartbeat CPU  0 instructions:  172000000 cycles:  235954081 heartbeat IPC: 0.46089 cumulative IPC: 0.45900 (Simulation time: 0 hr 8 min 47 sec) 
Heartbeat CPU  0 instructions:  173000000 cycles:  238121216 heartbeat IPC: 0.46144 cumulative IPC: 0.45903 (Simulation time: 0 hr 8 min 51 sec) 
Heartbeat CPU  0 instructions:  174000001 cycles:  240280846 heartbeat IPC: 0.46304 cumulative IPC: 0.45908 (Simulation time: 0 hr 8 min 54 sec) 
Heartbeat CPU  0 instructions:  175000003 cycles:  242442245 heartbeat IPC: 0.46266 cumulative IPC: 0.45913 (Simulation time: 0 hr 8 min 58 sec) 
Heartbeat CPU  0 instructions:  176000000 cycles:  244613866 heartbeat IPC: 0.46048 cumulative IPC: 0.45915 (Simulation time: 0 hr 9 min 1 sec) 
Heartbeat CPU  0 instructions:  177000003 cycles:  246779220 heartbeat IPC: 0.46182 cumulative IPC: 0.45918 (Simulation time: 0 hr 9 min 5 sec) 
Heartbeat CPU  0 instructions:  178000001 cycles:  248956259 heartbeat IPC: 0.45934 cumulative IPC: 0.45918 (Simulation time: 0 hr 9 min 8 sec) 
Heartbeat CPU  0 instructions:  179000000 cycles:  251119911 heartbeat IPC: 0.46218 cumulative IPC: 0.45922 (Simulation time: 0 hr 9 min 12 sec) 
Heartbeat CPU  0 instructions:  180000000 cycles:  253293414 heartbeat IPC: 0.46009 cumulative IPC: 0.45923 (Simulation time: 0 hr 9 min 15 sec) 
Heartbeat CPU  0 instructions:  181000000 cycles:  255454758 heartbeat IPC: 0.46268 cumulative IPC: 0.45927 (Simulation time: 0 hr 9 min 19 sec) 
Heartbeat CPU  0 instructions:  182000001 cycles:  257620151 heartbeat IPC: 0.46181 cumulative IPC: 0.45931 (Simulation time: 0 hr 9 min 22 sec) 
Heartbeat CPU  0 instructions:  183000002 cycles:  259792598 heartbeat IPC: 0.46031 cumulative IPC: 0.45932 (Simulation time: 0 hr 9 min 26 sec) 
Heartbeat CPU  0 instructions:  184000000 cycles:  261954078 heartbeat IPC: 0.46265 cumulative IPC: 0.45936 (Simulation time: 0 hr 9 min 29 sec) 
Heartbeat CPU  0 instructions:  185000001 cycles:  264124082 heartbeat IPC: 0.46083 cumulative IPC: 0.45937 (Simulation time: 0 hr 9 min 33 sec) 
Heartbeat CPU  0 instructions:  186000000 cycles:  266286405 heartbeat IPC: 0.46247 cumulative IPC: 0.45941 (Simulation time: 0 hr 9 min 36 sec) 
Heartbeat CPU  0 instructions:  187000000 cycles:  268552800 heartbeat IPC: 0.44123 cumulative IPC: 0.45919 (Simulation time: 0 hr 9 min 40 sec) 
Heartbeat CPU  0 instructions:  188000000 cycles:  270408465 heartbeat IPC: 0.53889 cumulative IPC: 0.45997 (Simulation time: 0 hr 9 min 43 sec) 
Heartbeat CPU  0 instructions:  189000002 cycles:  272180321 heartbeat IPC: 0.56438 cumulative IPC: 0.46092 (Simulation time: 0 hr 9 min 46 sec) 
Heartbeat CPU  0 instructions:  190000003 cycles:  274039847 heartbeat IPC: 0.53777 cumulative IPC: 0.46166 (Simulation time: 0 hr 9 min 50 sec) 
Heartbeat CPU  0 instructions:  191000000 cycles:  275848662 heartbeat IPC: 0.55285 cumulative IPC: 0.46249 (Simulation time: 0 hr 9 min 53 sec) 
Heartbeat CPU  0 instructions:  192000000 cycles:  277667540 heartbeat IPC: 0.54979 cumulative IPC: 0.46329 (Simulation time: 0 hr 9 min 57 sec) 
Heartbeat CPU  0 instructions:  193000001 cycles:  279555315 heartbeat IPC: 0.52972 cumulative IPC: 0.46392 (Simulation time: 0 hr 10 min 0 sec) 
Heartbeat CPU  0 instructions:  194000000 cycles:  281391524 heartbeat IPC: 0.54460 cumulative IPC: 0.46465 (Simulation time: 0 hr 10 min 3 sec) 
Heartbeat CPU  0 instructions:  195000000 cycles:  283261651 heartbeat IPC: 0.53472 cumulative IPC: 0.46529 (Simulation time: 0 hr 10 min 7 sec) 
Heartbeat CPU  0 instructions:  196000000 cycles:  285114324 heartbeat IPC: 0.53976 cumulative IPC: 0.46596 (Simulation time: 0 hr 10 min 10 sec) 
Heartbeat CPU  0 instructions:  197000000 cycles:  286870305 heartbeat IPC: 0.56948 cumulative IPC: 0.46684 (Simulation time: 0 hr 10 min 13 sec) 
Heartbeat CPU  0 instructions:  198000003 cycles:  288677510 heartbeat IPC: 0.55334 cumulative IPC: 0.46758 (Simulation time: 0 hr 10 min 16 sec) 
Heartbeat CPU  0 instructions:  199000001 cycles:  290573313 heartbeat IPC: 0.52748 cumulative IPC: 0.46812 (Simulation time: 0 hr 10 min 20 sec) 
Heartbeat CPU  0 instructions:  200000000 cycles:  292384763 heartbeat IPC: 0.55204 cumulative IPC: 0.46883 (Simulation time: 0 hr 10 min 23 sec) 
Heartbeat CPU  0 instructions:  201000003 cycles:  294247061 heartbeat IPC: 0.53697 cumulative IPC: 0.46942 (Simulation time: 0 hr 10 min 26 sec) 
Heartbeat CPU  0 instructions:  202000000 cycles:  296131628 heartbeat IPC: 0.53062 cumulative IPC: 0.46996 (Simulation time: 0 hr 10 min 30 sec) 
Heartbeat CPU  0 instructions:  203000001 cycles:  297997942 heartbeat IPC: 0.53582 cumulative IPC: 0.47052 (Simulation time: 0 hr 10 min 33 sec) 
Heartbeat CPU  0 instructions:  204000000 cycles:  299829775 heartbeat IPC: 0.54590 cumulative IPC: 0.47114 (Simulation time: 0 hr 10 min 36 sec) 
Heartbeat CPU  0 instructions:  205000000 cycles:  301752935 heartbeat IPC: 0.51998 cumulative IPC: 0.47156 (Simulation time: 0 hr 10 min 40 sec) 
Heartbeat CPU  0 instructions:  206000000 cycles:  303589125 heartbeat IPC: 0.54461 cumulative IPC: 0.47216 (Simulation time: 0 hr 10 min 43 sec) 
Heartbeat CPU  0 instructions:  207000000 cycles:  305412000 heartbeat IPC: 0.54858 cumulative IPC: 0.47278 (Simulation time: 0 hr 10 min 46 sec) 
Heartbeat CPU  0 instructions:  208000000 cycles:  307306042 heartbeat IPC: 0.52797 cumulative IPC: 0.47324 (Simulation time: 0 hr 10 min 50 sec) 
Heartbeat CPU  0 instructions:  209000003 cycles:  309158669 heartbeat IPC: 0.53978 cumulative IPC: 0.47377 (Simulation time: 0 hr 10 min 53 sec) 
Heartbeat CPU  0 instructions:  210000000 cycles:  311029605 heartbeat IPC: 0.53449 cumulative IPC: 0.47426 (Simulation time: 0 hr 10 min 56 sec) 
Heartbeat CPU  0 instructions:  211000003 cycles:  312918709 heartbeat IPC: 0.52935 cumulative IPC: 0.47471 (Simulation time: 0 hr 11 min 0 sec) 
Heartbeat CPU  0 instructions:  212000000 cycles:  314781743 heartbeat IPC: 0.53676 cumulative IPC: 0.47520 (Simulation time: 0 hr 11 min 3 sec) 
Heartbeat CPU  0 instructions:  213000003 cycles:  316628101 heartbeat IPC: 0.54161 cumulative IPC: 0.47571 (Simulation time: 0 hr 11 min 6 sec) 
Heartbeat CPU  0 instructions:  214000000 cycles:  318524187 heartbeat IPC: 0.52740 cumulative IPC: 0.47612 (Simulation time: 0 hr 11 min 10 sec) 
Heartbeat CPU  0 instructions:  215000002 cycles:  320386202 heartbeat IPC: 0.53705 cumulative IPC: 0.47659 (Simulation time: 0 hr 11 min 13 sec) 
Heartbeat CPU  0 instructions:  216000000 cycles:  322230463 heartbeat IPC: 0.54222 cumulative IPC: 0.47709 (Simulation time: 0 hr 11 min 16 sec) 
Heartbeat CPU  0 instructions:  217000001 cycles:  324119058 heartbeat IPC: 0.52949 cumulative IPC: 0.47749 (Simulation time: 0 hr 11 min 19 sec) 
Heartbeat CPU  0 instructions:  218000000 cycles:  325959943 heartbeat IPC: 0.54322 cumulative IPC: 0.47798 (Simulation time: 0 hr 11 min 23 sec) 
Heartbeat CPU  0 instructions:  219000000 cycles:  327840785 heartbeat IPC: 0.53168 cumulative IPC: 0.47839 (Simulation time: 0 hr 11 min 26 sec) 
Heartbeat CPU  0 instructions:  220000000 cycles:  329736873 heartbeat IPC: 0.52740 cumulative IPC: 0.47876 (Simulation time: 0 hr 11 min 29 sec) 
Heartbeat CPU  0 instructions:  221000000 cycles:  331594167 heartbeat IPC: 0.53842 cumulative IPC: 0.47920 (Simulation time: 0 hr 11 min 33 sec) 
Heartbeat CPU  0 instructions:  222000000 cycles:  333439404 heartbeat IPC: 0.54194 cumulative IPC: 0.47965 (Simulation time: 0 hr 11 min 36 sec) 
Heartbeat CPU  0 instructions:  223000003 cycles:  335312696 heartbeat IPC: 0.53382 cumulative IPC: 0.48005 (Simulation time: 0 hr 11 min 39 sec) 
Heartbeat CPU  0 instructions:  224000000 cycles:  337199499 heartbeat IPC: 0.53000 cumulative IPC: 0.48042 (Simulation time: 0 hr 11 min 43 sec) 
Heartbeat CPU  0 instructions:  225000001 cycles:  339032956 heartbeat IPC: 0.54542 cumulative IPC: 0.48087 (Simulation time: 0 hr 11 min 46 sec) 
Heartbeat CPU  0 instructions:  226000002 cycles:  340915653 heartbeat IPC: 0.53115 cumulative IPC: 0.48124 (Simulation time: 0 hr 11 min 49 sec) 
Heartbeat CPU  0 instructions:  227000003 cycles:  342778206 heartbeat IPC: 0.53690 cumulative IPC: 0.48163 (Simulation time: 0 hr 11 min 53 sec) 
Heartbeat CPU  0 instructions:  228000000 cycles:  344636678 heartbeat IPC: 0.53807 cumulative IPC: 0.48202 (Simulation time: 0 hr 11 min 56 sec) 
Heartbeat CPU  0 instructions:  229000000 cycles:  346501551 heartbeat IPC: 0.53623 cumulative IPC: 0.48240 (Simulation time: 0 hr 11 min 59 sec) 
Heartbeat CPU  0 instructions:  230000003 cycles:  348353625 heartbeat IPC: 0.53994 cumulative IPC: 0.48280 (Simulation time: 0 hr 12 min 3 sec) 
Heartbeat CPU  0 instructions:  231000000 cycles:  350203623 heartbeat IPC: 0.54054 cumulative IPC: 0.48319 (Simulation time: 0 hr 12 min 6 sec) 
Heartbeat CPU  0 instructions:  232000000 cycles:  352035176 heartbeat IPC: 0.54598 cumulative IPC: 0.48361 (Simulation time: 0 hr 12 min 10 sec) 
Heartbeat CPU  0 instructions:  233000003 cycles:  353937422 heartbeat IPC: 0.52570 cumulative IPC: 0.48390 (Simulation time: 0 hr 12 min 13 sec) 
Heartbeat CPU  0 instructions:  234000002 cycles:  355755275 heartbeat IPC: 0.55010 cumulative IPC: 0.48434 (Simulation time: 0 hr 12 min 16 sec) 
Heartbeat CPU  0 instructions:  235000001 cycles:  357560577 heartbeat IPC: 0.55392 cumulative IPC: 0.48479 (Simulation time: 0 hr 12 min 20 sec) 
Heartbeat CPU  0 instructions:  236000000 cycles:  359449442 heartbeat IPC: 0.52942 cumulative IPC: 0.48509 (Simulation time: 0 hr 12 min 23 sec) 
Heartbeat CPU  0 instructions:  237000002 cycles:  361265615 heartbeat IPC: 0.55061 cumulative IPC: 0.48551 (Simulation time: 0 hr 12 min 26 sec) 
Heartbeat CPU  0 instructions:  238000000 cycles:  363153293 heartbeat IPC: 0.52975 cumulative IPC: 0.48581 (Simulation time: 0 hr 12 min 30 sec) 
Heartbeat CPU  0 instructions:  239000000 cycles:  365052464 heartbeat IPC: 0.52655 cumulative IPC: 0.48608 (Simulation time: 0 hr 12 min 33 sec) 
Heartbeat CPU  0 instructions:  240000000 cycles:  366862731 heartbeat IPC: 0.55240 cumulative IPC: 0.48649 (Simulation time: 0 hr 12 min 37 sec) 
Heartbeat CPU  0 instructions:  241000002 cycles:  368696329 heartbeat IPC: 0.54538 cumulative IPC: 0.48687 (Simulation time: 0 hr 12 min 40 sec) 
Heartbeat CPU  0 instructions:  242000000 cycles:  370596237 heartbeat IPC: 0.52634 cumulative IPC: 0.48712 (Simulation time: 0 hr 12 min 43 sec) 
Heartbeat CPU  0 instructions:  243000003 cycles:  372393569 heartbeat IPC: 0.55638 cumulative IPC: 0.48755 (Simulation time: 0 hr 12 min 47 sec) 
Heartbeat CPU  0 instructions:  244000000 cycles:  374217708 heartbeat IPC: 0.54820 cumulative IPC: 0.48792 (Simulation time: 0 hr 12 min 50 sec) 
Heartbeat CPU  0 instructions:  245000002 cycles:  376075035 heartbeat IPC: 0.53841 cumulative IPC: 0.48824 (Simulation time: 0 hr 12 min 54 sec) 
Heartbeat CPU  0 instructions:  246000003 cycles:  377894554 heartbeat IPC: 0.54960 cumulative IPC: 0.48861 (Simulation time: 0 hr 12 min 57 sec) 
Heartbeat CPU  0 instructions:  247000002 cycles:  379712491 heartbeat IPC: 0.55007 cumulative IPC: 0.48899 (Simulation time: 0 hr 13 min 1 sec) 
Heartbeat CPU  0 instructions:  248000000 cycles:  381582437 heartbeat IPC: 0.53477 cumulative IPC: 0.48927 (Simulation time: 0 hr 13 min 5 sec) 
Heartbeat CPU  0 instructions:  249000002 cycles:  383440688 heartbeat IPC: 0.53814 cumulative IPC: 0.48957 (Simulation time: 0 hr 13 min 8 sec) 
Heartbeat CPU  0 instructions:  250000003 cycles:  385291708 heartbeat IPC: 0.54024 cumulative IPC: 0.48987 (Simulation time: 0 hr 13 min 12 sec) 
Heartbeat CPU  0 instructions:  251000001 cycles:  387182480 heartbeat IPC: 0.52888 cumulative IPC: 0.49011 (Simulation time: 0 hr 13 min 16 sec) 
Heartbeat CPU  0 instructions:  252000000 cycles:  389023581 heartbeat IPC: 0.54315 cumulative IPC: 0.49043 (Simulation time: 0 hr 13 min 19 sec) 
Heartbeat CPU  0 instructions:  253000000 cycles:  390875208 heartbeat IPC: 0.54007 cumulative IPC: 0.49072 (Simulation time: 0 hr 13 min 23 sec) 
Heartbeat CPU  0 instructions:  254000003 cycles:  392707712 heartbeat IPC: 0.54570 cumulative IPC: 0.49104 (Simulation time: 0 hr 13 min 26 sec) 
Heartbeat CPU  0 instructions:  255000000 cycles:  394593162 heartbeat IPC: 0.53038 cumulative IPC: 0.49128 (Simulation time: 0 hr 13 min 30 sec) 
Heartbeat CPU  0 instructions:  256000000 cycles:  396407335 heartbeat IPC: 0.55122 cumulative IPC: 0.49162 (Simulation time: 0 hr 13 min 33 sec) 
Heartbeat CPU  0 instructions:  257000003 cycles:  398280264 heartbeat IPC: 0.53392 cumulative IPC: 0.49187 (Simulation time: 0 hr 13 min 37 sec) 
Heartbeat CPU  0 instructions:  258000002 cycles:  400084429 heartbeat IPC: 0.55427 cumulative IPC: 0.49222 (Simulation time: 0 hr 13 min 41 sec) 
Heartbeat CPU  0 instructions:  259000002 cycles:  401898692 heartbeat IPC: 0.55119 cumulative IPC: 0.49255 (Simulation time: 0 hr 13 min 44 sec) 
Heartbeat CPU  0 instructions:  260000000 cycles:  403789751 heartbeat IPC: 0.52880 cumulative IPC: 0.49276 (Simulation time: 0 hr 13 min 48 sec) 
Heartbeat CPU  0 instructions:  261000000 cycles:  405668480 heartbeat IPC: 0.53227 cumulative IPC: 0.49299 (Simulation time: 0 hr 13 min 51 sec) 
Heartbeat CPU  0 instructions:  262000001 cycles:  407513533 heartbeat IPC: 0.54199 cumulative IPC: 0.49327 (Simulation time: 0 hr 13 min 54 sec) 
Heartbeat CPU  0 instructions:  263000002 cycles:  409427045 heartbeat IPC: 0.52260 cumulative IPC: 0.49344 (Simulation time: 0 hr 13 min 58 sec) 
Heartbeat CPU  0 instructions:  264000000 cycles:  411319078 heartbeat IPC: 0.52853 cumulative IPC: 0.49363 (Simulation time: 0 hr 14 min 1 sec) 
Heartbeat CPU  0 instructions:  265000003 cycles:  413146970 heartbeat IPC: 0.54708 cumulative IPC: 0.49393 (Simulation time: 0 hr 14 min 4 sec) 
Heartbeat CPU  0 instructions:  266000002 cycles:  414993672 heartbeat IPC: 0.54151 cumulative IPC: 0.49419 (Simulation time: 0 hr 14 min 8 sec) 
Heartbeat CPU  0 instructions:  267000003 cycles:  416877351 heartbeat IPC: 0.53088 cumulative IPC: 0.49439 (Simulation time: 0 hr 14 min 11 sec) 
Heartbeat CPU  0 instructions:  268000000 cycles:  418675176 heartbeat IPC: 0.55623 cumulative IPC: 0.49472 (Simulation time: 0 hr 14 min 14 sec) 
Heartbeat CPU  0 instructions:  269000002 cycles:  420488186 heartbeat IPC: 0.55157 cumulative IPC: 0.49502 (Simulation time: 0 hr 14 min 18 sec) 
Heartbeat CPU  0 instructions:  270000001 cycles:  422422560 heartbeat IPC: 0.51696 cumulative IPC: 0.49515 (Simulation time: 0 hr 14 min 21 sec) 
Heartbeat CPU  0 instructions:  271000000 cycles:  424239302 heartbeat IPC: 0.55044 cumulative IPC: 0.49544 (Simulation time: 0 hr 14 min 24 sec) 
Heartbeat CPU  0 instructions:  272000000 cycles:  426107955 heartbeat IPC: 0.53514 cumulative IPC: 0.49565 (Simulation time: 0 hr 14 min 28 sec) 
Heartbeat CPU  0 instructions:  273000001 cycles:  428006229 heartbeat IPC: 0.52679 cumulative IPC: 0.49582 (Simulation time: 0 hr 14 min 31 sec) 
Heartbeat CPU  0 instructions:  274000000 cycles:  429837515 heartbeat IPC: 0.54606 cumulative IPC: 0.49608 (Simulation time: 0 hr 14 min 34 sec) 
Heartbeat CPU  0 instructions:  275000002 cycles:  431699842 heartbeat IPC: 0.53696 cumulative IPC: 0.49630 (Simulation time: 0 hr 14 min 38 sec) 
Heartbeat CPU  0 instructions:  276000000 cycles:  433582794 heartbeat IPC: 0.53108 cumulative IPC: 0.49648 (Simulation time: 0 hr 14 min 41 sec) 
Heartbeat CPU  0 instructions:  277000001 cycles:  435390290 heartbeat IPC: 0.55325 cumulative IPC: 0.49677 (Simulation time: 0 hr 14 min 44 sec) 
Heartbeat CPU  0 instructions:  278000003 cycles:  437233907 heartbeat IPC: 0.54241 cumulative IPC: 0.49701 (Simulation time: 0 hr 14 min 48 sec) 
Heartbeat CPU  0 instructions:  279000002 cycles:  439102611 heartbeat IPC: 0.53513 cumulative IPC: 0.49720 (Simulation time: 0 hr 14 min 51 sec) 
Heartbeat CPU  0 instructions:  280000000 cycles:  440911595 heartbeat IPC: 0.55280 cumulative IPC: 0.49748 (Simulation time: 0 hr 14 min 54 sec) 
Heartbeat CPU  0 instructions:  281000001 cycles:  442783675 heartbeat IPC: 0.53417 cumulative IPC: 0.49767 (Simulation time: 0 hr 14 min 58 sec) 
Heartbeat CPU  0 instructions:  282000002 cycles:  444632891 heartbeat IPC: 0.54077 cumulative IPC: 0.49789 (Simulation time: 0 hr 15 min 1 sec) 
Heartbeat CPU  0 instructions:  283000001 cycles:  446478955 heartbeat IPC: 0.54169 cumulative IPC: 0.49811 (Simulation time: 0 hr 15 min 4 sec) 
Heartbeat CPU  0 instructions:  284000000 cycles:  448336161 heartbeat IPC: 0.53844 cumulative IPC: 0.49831 (Simulation time: 0 hr 15 min 8 sec) 
Heartbeat CPU  0 instructions:  285000001 cycles:  450222610 heartbeat IPC: 0.53010 cumulative IPC: 0.49847 (Simulation time: 0 hr 15 min 11 sec) 
Heartbeat CPU  0 instructions:  286000002 cycles:  452066085 heartbeat IPC: 0.54245 cumulative IPC: 0.49869 (Simulation time: 0 hr 15 min 15 sec) 
Heartbeat CPU  0 instructions:  287000000 cycles:  453913606 heartbeat IPC: 0.54126 cumulative IPC: 0.49890 (Simulation time: 0 hr 15 min 18 sec) 
Heartbeat CPU  0 instructions:  288000000 cycles:  455786314 heartbeat IPC: 0.53399 cumulative IPC: 0.49908 (Simulation time: 0 hr 15 min 21 sec) 
Heartbeat CPU  0 instructions:  289000003 cycles:  457600538 heartbeat IPC: 0.55120 cumulative IPC: 0.49933 (Simulation time: 0 hr 15 min 25 sec) 
Heartbeat CPU  0 instructions:  290000000 cycles:  459410573 heartbeat IPC: 0.55247 cumulative IPC: 0.49958 (Simulation time: 0 hr 15 min 28 sec) 
Heartbeat CPU  0 instructions:  291000000 cycles:  461287543 heartbeat IPC: 0.53277 cumulative IPC: 0.49974 (Simulation time: 0 hr 15 min 32 sec) 
Heartbeat CPU  0 instructions:  292000000 cycles:  463138229 heartbeat IPC: 0.54034 cumulative IPC: 0.49994 (Simulation time: 0 hr 15 min 35 sec) 
Heartbeat CPU  0 instructions:  293000003 cycles:  464954210 heartbeat IPC: 0.55067 cumulative IPC: 0.50018 (Simulation time: 0 hr 15 min 38 sec) 
Heartbeat CPU  0 instructions:  294000000 cycles:  466836670 heartbeat IPC: 0.53122 cumulative IPC: 0.50033 (Simulation time: 0 hr 15 min 42 sec) 
Heartbeat CPU  0 instructions:  295000001 cycles:  468692261 heartbeat IPC: 0.53891 cumulative IPC: 0.50051 (Simulation time: 0 hr 15 min 45 sec) 
Heartbeat CPU  0 instructions:  296000000 cycles:  470500458 heartbeat IPC: 0.55304 cumulative IPC: 0.50075 (Simulation time: 0 hr 15 min 48 sec) 
Heartbeat CPU  0 instructions:  297000003 cycles:  472373314 heartbeat IPC: 0.53395 cumulative IPC: 0.50091 (Simulation time: 0 hr 15 min 52 sec) 
Heartbeat CPU  0 instructions:  298000000 cycles:  474220177 heartbeat IPC: 0.54146 cumulative IPC: 0.50110 (Simulation time: 0 hr 15 min 55 sec) 
Heartbeat CPU  0 instructions:  299000001 cycles:  476054440 heartbeat IPC: 0.54518 cumulative IPC: 0.50130 (Simulation time: 0 hr 15 min 58 sec) 
Heartbeat CPU  0 instructions:  300000000 cycles:  477911888 heartbeat IPC: 0.53837 cumulative IPC: 0.50148 (Simulation time: 0 hr 16 min 2 sec) 
Heartbeat CPU  0 instructions:  301000002 cycles:  479776688 heartbeat IPC: 0.53625 cumulative IPC: 0.50164 (Simulation time: 0 hr 16 min 5 sec) 
Heartbeat CPU  0 instructions:  302000001 cycles:  481595682 heartbeat IPC: 0.54975 cumulative IPC: 0.50186 (Simulation time: 0 hr 16 min 9 sec) 
Heartbeat CPU  0 instructions:  303000002 cycles:  483498063 heartbeat IPC: 0.52566 cumulative IPC: 0.50197 (Simulation time: 0 hr 16 min 12 sec) 
Heartbeat CPU  0 instructions:  304000000 cycles:  485396277 heartbeat IPC: 0.52681 cumulative IPC: 0.50208 (Simulation time: 0 hr 16 min 15 sec) 
Heartbeat CPU  0 instructions:  305000001 cycles:  487169708 heartbeat IPC: 0.56388 cumulative IPC: 0.50235 (Simulation time: 0 hr 16 min 19 sec) 
Heartbeat CPU  0 instructions:  306000000 cycles:  489052283 heartbeat IPC: 0.53119 cumulative IPC: 0.50248 (Simulation time: 0 hr 16 min 22 sec) 
Heartbeat CPU  0 instructions:  307000000 cycles:  490914332 heartbeat IPC: 0.53704 cumulative IPC: 0.50264 (Simulation time: 0 hr 16 min 25 sec) 
Heartbeat CPU  0 instructions:  308000000 cycles:  493001833 heartbeat IPC: 0.47904 cumulative IPC: 0.50252 (Simulation time: 0 hr 16 min 29 sec) 
Heartbeat CPU  0 instructions:  309000002 cycles:  494896990 heartbeat IPC: 0.52766 cumulative IPC: 0.50264 (Simulation time: 0 hr 16 min 32 sec) 
Heartbeat CPU  0 instructions:  310000000 cycles:  496552842 heartbeat IPC: 0.60392 cumulative IPC: 0.50304 (Simulation time: 0 hr 16 min 35 sec) 
Heartbeat CPU  0 instructions:  311000002 cycles:  498598142 heartbeat IPC: 0.48893 cumulative IPC: 0.50297 (Simulation time: 0 hr 16 min 38 sec) 
Heartbeat CPU  0 instructions:  312000000 cycles:  500468151 heartbeat IPC: 0.53476 cumulative IPC: 0.50311 (Simulation time: 0 hr 16 min 42 sec) 
Heartbeat CPU  0 instructions:  313000003 cycles:  502303087 heartbeat IPC: 0.54498 cumulative IPC: 0.50329 (Simulation time: 0 hr 16 min 45 sec) 
Heartbeat CPU  0 instructions:  314000000 cycles:  504212139 heartbeat IPC: 0.52382 cumulative IPC: 0.50338 (Simulation time: 0 hr 16 min 48 sec) 
Heartbeat CPU  0 instructions:  315000003 cycles:  506003210 heartbeat IPC: 0.55833 cumulative IPC: 0.50361 (Simulation time: 0 hr 16 min 52 sec) 
Heartbeat CPU  0 instructions:  316000000 cycles:  507851545 heartbeat IPC: 0.54103 cumulative IPC: 0.50378 (Simulation time: 0 hr 16 min 55 sec) 
Heartbeat CPU  0 instructions:  317000001 cycles:  509718319 heartbeat IPC: 0.53568 cumulative IPC: 0.50391 (Simulation time: 0 hr 16 min 59 sec) 
Heartbeat CPU  0 instructions:  318000000 cycles:  511521358 heartbeat IPC: 0.55462 cumulative IPC: 0.50413 (Simulation time: 0 hr 17 min 2 sec) 
Heartbeat CPU  0 instructions:  319000000 cycles:  513415624 heartbeat IPC: 0.52791 cumulative IPC: 0.50423 (Simulation time: 0 hr 17 min 5 sec) 
Heartbeat CPU  0 instructions:  320000000 cycles:  515246429 heartbeat IPC: 0.54621 cumulative IPC: 0.50441 (Simulation time: 0 hr 17 min 9 sec) 
Heartbeat CPU  0 instructions:  321000000 cycles:  517032212 heartbeat IPC: 0.55998 cumulative IPC: 0.50463 (Simulation time: 0 hr 17 min 12 sec) 
Heartbeat CPU  0 instructions:  322000003 cycles:  518889020 heartbeat IPC: 0.53856 cumulative IPC: 0.50478 (Simulation time: 0 hr 17 min 16 sec) 
Heartbeat CPU  0 instructions:  323000003 cycles:  520744437 heartbeat IPC: 0.53896 cumulative IPC: 0.50492 (Simulation time: 0 hr 17 min 19 sec) 
Heartbeat CPU  0 instructions:  324000000 cycles:  522619039 heartbeat IPC: 0.53344 cumulative IPC: 0.50504 (Simulation time: 0 hr 17 min 22 sec) 
Heartbeat CPU  0 instructions:  325000003 cycles:  524438518 heartbeat IPC: 0.54961 cumulative IPC: 0.50522 (Simulation time: 0 hr 17 min 26 sec) 
Heartbeat CPU  0 instructions:  326000000 cycles:  526323647 heartbeat IPC: 0.53047 cumulative IPC: 0.50533 (Simulation time: 0 hr 17 min 29 sec) 
Heartbeat CPU  0 instructions:  327000001 cycles:  528187122 heartbeat IPC: 0.53663 cumulative IPC: 0.50546 (Simulation time: 0 hr 17 min 32 sec) 
Heartbeat CPU  0 instructions:  328000000 cycles:  530016813 heartbeat IPC: 0.54654 cumulative IPC: 0.50563 (Simulation time: 0 hr 17 min 36 sec) 
Heartbeat CPU  0 instructions:  329000002 cycles:  531863213 heartbeat IPC: 0.54160 cumulative IPC: 0.50577 (Simulation time: 0 hr 17 min 39 sec) 
Heartbeat CPU  0 instructions:  330000003 cycles:  533661974 heartbeat IPC: 0.55594 cumulative IPC: 0.50597 (Simulation time: 0 hr 17 min 43 sec) 
Heartbeat CPU  0 instructions:  331000003 cycles:  535542057 heartbeat IPC: 0.53189 cumulative IPC: 0.50608 (Simulation time: 0 hr 17 min 46 sec) 
Heartbeat CPU  0 instructions:  332000000 cycles:  537414088 heartbeat IPC: 0.53418 cumulative IPC: 0.50619 (Simulation time: 0 hr 17 min 49 sec) 
Heartbeat CPU  0 instructions:  333000003 cycles:  539227512 heartbeat IPC: 0.55144 cumulative IPC: 0.50637 (Simulation time: 0 hr 17 min 53 sec) 
Heartbeat CPU  0 instructions:  334000000 cycles:  541132469 heartbeat IPC: 0.52494 cumulative IPC: 0.50645 (Simulation time: 0 hr 17 min 56 sec) 
Heartbeat CPU  0 instructions:  335000002 cycles:  543027572 heartbeat IPC: 0.52768 cumulative IPC: 0.50653 (Simulation time: 0 hr 18 min 0 sec) 
Heartbeat CPU  0 instructions:  336000000 cycles:  544866006 heartbeat IPC: 0.54394 cumulative IPC: 0.50668 (Simulation time: 0 hr 18 min 3 sec) 
Heartbeat CPU  0 instructions:  337000000 cycles:  546759688 heartbeat IPC: 0.52807 cumulative IPC: 0.50677 (Simulation time: 0 hr 18 min 6 sec) 
Heartbeat CPU  0 instructions:  338000002 cycles:  548649976 heartbeat IPC: 0.52902 cumulative IPC: 0.50686 (Simulation time: 0 hr 18 min 10 sec) 
Heartbeat CPU  0 instructions:  339000001 cycles:  550508844 heartbeat IPC: 0.53796 cumulative IPC: 0.50698 (Simulation time: 0 hr 18 min 13 sec) 
Heartbeat CPU  0 instructions:  340000000 cycles:  552329915 heartbeat IPC: 0.54913 cumulative IPC: 0.50714 (Simulation time: 0 hr 18 min 17 sec) 
Heartbeat CPU  0 instructions:  341000002 cycles:  554199201 heartbeat IPC: 0.53496 cumulative IPC: 0.50725 (Simulation time: 0 hr 18 min 20 sec) 
Heartbeat CPU  0 instructions:  342000003 cycles:  556066522 heartbeat IPC: 0.53553 cumulative IPC: 0.50736 (Simulation time: 0 hr 18 min 23 sec) 
Heartbeat CPU  0 instructions:  343000000 cycles:  557934406 heartbeat IPC: 0.53536 cumulative IPC: 0.50747 (Simulation time: 0 hr 18 min 27 sec) 
Heartbeat CPU  0 instructions:  344000000 cycles:  559831557 heartbeat IPC: 0.52711 cumulative IPC: 0.50755 (Simulation time: 0 hr 18 min 30 sec) 
Heartbeat CPU  0 instructions:  345000003 cycles:  561634201 heartbeat IPC: 0.55474 cumulative IPC: 0.50773 (Simulation time: 0 hr 18 min 33 sec) 
Heartbeat CPU  0 instructions:  346000000 cycles:  563428443 heartbeat IPC: 0.55734 cumulative IPC: 0.50791 (Simulation time: 0 hr 18 min 37 sec) 
Heartbeat CPU  0 instructions:  347000003 cycles:  565330196 heartbeat IPC: 0.52583 cumulative IPC: 0.50798 (Simulation time: 0 hr 18 min 40 sec) 
Heartbeat CPU  0 instructions:  348000000 cycles:  567110833 heartbeat IPC: 0.56160 cumulative IPC: 0.50817 (Simulation time: 0 hr 18 min 44 sec) 
Heartbeat CPU  0 instructions:  349000000 cycles:  568936898 heartbeat IPC: 0.54763 cumulative IPC: 0.50832 (Simulation time: 0 hr 18 min 47 sec) 
Heartbeat CPU  0 instructions:  350000003 cycles:  570832377 heartbeat IPC: 0.52757 cumulative IPC: 0.50840 (Simulation time: 0 hr 18 min 50 sec) 
Heartbeat CPU  0 instructions:  351000001 cycles:  572719591 heartbeat IPC: 0.52988 cumulative IPC: 0.50848 (Simulation time: 0 hr 18 min 54 sec) 
Heartbeat CPU  0 instructions:  352000000 cycles:  574571196 heartbeat IPC: 0.54007 cumulative IPC: 0.50860 (Simulation time: 0 hr 18 min 57 sec) 
Heartbeat CPU  0 instructions:  353000003 cycles:  576432762 heartbeat IPC: 0.53718 cumulative IPC: 0.50870 (Simulation time: 0 hr 19 min 0 sec) 
Heartbeat CPU  0 instructions:  354000000 cycles:  578260280 heartbeat IPC: 0.54719 cumulative IPC: 0.50884 (Simulation time: 0 hr 19 min 4 sec) 
Heartbeat CPU  0 instructions:  355000000 cycles:  580052541 heartbeat IPC: 0.55795 cumulative IPC: 0.50902 (Simulation time: 0 hr 19 min 7 sec) 
Heartbeat CPU  0 instructions:  356000000 cycles:  581933026 heartbeat IPC: 0.53178 cumulative IPC: 0.50910 (Simulation time: 0 hr 19 min 10 sec) 
Heartbeat CPU  0 instructions:  357000002 cycles:  583843104 heartbeat IPC: 0.52354 cumulative IPC: 0.50916 (Simulation time: 0 hr 19 min 14 sec) 
Heartbeat CPU  0 instructions:  358000003 cycles:  585662617 heartbeat IPC: 0.54960 cumulative IPC: 0.50930 (Simulation time: 0 hr 19 min 17 sec) 
Heartbeat CPU  0 instructions:  359000000 cycles:  587568216 heartbeat IPC: 0.52477 cumulative IPC: 0.50936 (Simulation time: 0 hr 19 min 21 sec) 
Heartbeat CPU  0 instructions:  360000000 cycles:  589407797 heartbeat IPC: 0.54360 cumulative IPC: 0.50949 (Simulation time: 0 hr 19 min 24 sec) 
Heartbeat CPU  0 instructions:  361000002 cycles:  591229184 heartbeat IPC: 0.54903 cumulative IPC: 0.50963 (Simulation time: 0 hr 19 min 28 sec) 
Heartbeat CPU  0 instructions:  362000003 cycles:  593154495 heartbeat IPC: 0.51940 cumulative IPC: 0.50966 (Simulation time: 0 hr 19 min 31 sec) 
Heartbeat CPU  0 instructions:  363000003 cycles:  594944908 heartbeat IPC: 0.55853 cumulative IPC: 0.50983 (Simulation time: 0 hr 19 min 34 sec) 
Heartbeat CPU  0 instructions:  364000000 cycles:  596780957 heartbeat IPC: 0.54465 cumulative IPC: 0.50996 (Simulation time: 0 hr 19 min 38 sec) 
Heartbeat CPU  0 instructions:  365000003 cycles:  598629353 heartbeat IPC: 0.54101 cumulative IPC: 0.51007 (Simulation time: 0 hr 19 min 41 sec) 
Heartbeat CPU  0 instructions:  366000000 cycles:  600535923 heartbeat IPC: 0.52450 cumulative IPC: 0.51012 (Simulation time: 0 hr 19 min 44 sec) 
Heartbeat CPU  0 instructions:  367000001 cycles:  602357976 heartbeat IPC: 0.54883 cumulative IPC: 0.51025 (Simulation time: 0 hr 19 min 48 sec) 
Heartbeat CPU  0 instructions:  368000000 cycles:  604206703 heartbeat IPC: 0.54091 cumulative IPC: 0.51036 (Simulation time: 0 hr 19 min 51 sec) 
Heartbeat CPU  0 instructions:  369000003 cycles:  606078459 heartbeat IPC: 0.53426 cumulative IPC: 0.51045 (Simulation time: 0 hr 19 min 55 sec) 
Heartbeat CPU  0 instructions:  370000000 cycles:  607893838 heartbeat IPC: 0.55085 cumulative IPC: 0.51059 (Simulation time: 0 hr 19 min 58 sec) 
Heartbeat CPU  0 instructions:  371000000 cycles:  609792194 heartbeat IPC: 0.52677 cumulative IPC: 0.51064 (Simulation time: 0 hr 20 min 1 sec) 
Heartbeat CPU  0 instructions:  372000000 cycles:  611680818 heartbeat IPC: 0.52949 cumulative IPC: 0.51071 (Simulation time: 0 hr 20 min 5 sec) 
Heartbeat CPU  0 instructions:  373000000 cycles:  613464962 heartbeat IPC: 0.56049 cumulative IPC: 0.51088 (Simulation time: 0 hr 20 min 8 sec) 
Heartbeat CPU  0 instructions:  374000003 cycles:  615340352 heartbeat IPC: 0.53322 cumulative IPC: 0.51096 (Simulation time: 0 hr 20 min 12 sec) 
Heartbeat CPU  0 instructions:  375000002 cycles:  617206834 heartbeat IPC: 0.53577 cumulative IPC: 0.51104 (Simulation time: 0 hr 20 min 15 sec) 
Heartbeat CPU  0 instructions:  376000000 cycles:  619044026 heartbeat IPC: 0.54431 cumulative IPC: 0.51115 (Simulation time: 0 hr 20 min 18 sec) 
Heartbeat CPU  0 instructions:  377000003 cycles:  620854758 heartbeat IPC: 0.55226 cumulative IPC: 0.51129 (Simulation time: 0 hr 20 min 22 sec) 
Heartbeat CPU  0 instructions:  378000000 cycles:  622702999 heartbeat IPC: 0.54105 cumulative IPC: 0.51139 (Simulation time: 0 hr 20 min 25 sec) 
Heartbeat CPU  0 instructions:  379000001 cycles:  624493073 heartbeat IPC: 0.55864 cumulative IPC: 0.51155 (Simulation time: 0 hr 20 min 29 sec) 
Heartbeat CPU  0 instructions:  380000000 cycles:  626353742 heartbeat IPC: 0.53744 cumulative IPC: 0.51164 (Simulation time: 0 hr 20 min 32 sec) 
Heartbeat CPU  0 instructions:  381000002 cycles:  628219296 heartbeat IPC: 0.53603 cumulative IPC: 0.51172 (Simulation time: 0 hr 20 min 36 sec) 
Heartbeat CPU  0 instructions:  382000003 cycles:  630024728 heartbeat IPC: 0.55388 cumulative IPC: 0.51186 (Simulation time: 0 hr 20 min 39 sec) 
Heartbeat CPU  0 instructions:  383000000 cycles:  631880491 heartbeat IPC: 0.53886 cumulative IPC: 0.51195 (Simulation time: 0 hr 20 min 43 sec) 
Heartbeat CPU  0 instructions:  384000000 cycles:  633802992 heartbeat IPC: 0.52016 cumulative IPC: 0.51198 (Simulation time: 0 hr 20 min 46 sec) 
Heartbeat CPU  0 instructions:  385000003 cycles:  635574006 heartbeat IPC: 0.56465 cumulative IPC: 0.51214 (Simulation time: 0 hr 20 min 49 sec) 
Heartbeat CPU  0 instructions:  386000000 cycles:  637448620 heartbeat IPC: 0.53344 cumulative IPC: 0.51222 (Simulation time: 0 hr 20 min 53 sec) 
Heartbeat CPU  0 instructions:  387000002 cycles:  639296433 heartbeat IPC: 0.54118 cumulative IPC: 0.51231 (Simulation time: 0 hr 20 min 56 sec) 
Heartbeat CPU  0 instructions:  388000000 cycles:  641128577 heartbeat IPC: 0.54581 cumulative IPC: 0.51242 (Simulation time: 0 hr 21 min 0 sec) 
Heartbeat CPU  0 instructions:  389000000 cycles:  642996306 heartbeat IPC: 0.53541 cumulative IPC: 0.51250 (Simulation time: 0 hr 21 min 3 sec) 
Heartbeat CPU  0 instructions:  390000000 cycles:  644852731 heartbeat IPC: 0.53867 cumulative IPC: 0.51258 (Simulation time: 0 hr 21 min 6 sec) 
Heartbeat CPU  0 instructions:  391000003 cycles:  646652879 heartbeat IPC: 0.55551 cumulative IPC: 0.51272 (Simulation time: 0 hr 21 min 10 sec) 
Heartbeat CPU  0 instructions:  392000000 cycles:  648433581 heartbeat IPC: 0.56157 cumulative IPC: 0.51287 (Simulation time: 0 hr 21 min 13 sec) 
Heartbeat CPU  0 instructions:  393000000 cycles:  650325400 heartbeat IPC: 0.52859 cumulative IPC: 0.51292 (Simulation time: 0 hr 21 min 16 sec) 
Heartbeat CPU  0 instructions:  394000000 cycles:  652165407 heartbeat IPC: 0.54348 cumulative IPC: 0.51302 (Simulation time: 0 hr 21 min 20 sec) 
Heartbeat CPU  0 instructions:  395000000 cycles:  653994457 heartbeat IPC: 0.54673 cumulative IPC: 0.51313 (Simulation time: 0 hr 21 min 23 sec) 
Heartbeat CPU  0 instructions:  396000000 cycles:  655900597 heartbeat IPC: 0.52462 cumulative IPC: 0.51317 (Simulation time: 0 hr 21 min 27 sec) 
Heartbeat CPU  0 instructions:  397000000 cycles:  657715349 heartbeat IPC: 0.55104 cumulative IPC: 0.51329 (Simulation time: 0 hr 21 min 30 sec) 
Heartbeat CPU  0 instructions:  398000001 cycles:  659553627 heartbeat IPC: 0.54399 cumulative IPC: 0.51338 (Simulation time: 0 hr 21 min 33 sec) 
Heartbeat CPU  0 instructions:  399000002 cycles:  661484386 heartbeat IPC: 0.51793 cumulative IPC: 0.51340 (Simulation time: 0 hr 21 min 37 sec) 
Heartbeat CPU  0 instructions:  400000000 cycles:  663299332 heartbeat IPC: 0.55098 cumulative IPC: 0.51351 (Simulation time: 0 hr 21 min 40 sec) 
Heartbeat CPU  0 instructions:  401000002 cycles:  665142058 heartbeat IPC: 0.54268 cumulative IPC: 0.51361 (Simulation time: 0 hr 21 min 44 sec) 
Heartbeat CPU  0 instructions:  402000003 cycles:  666969746 heartbeat IPC: 0.54714 cumulative IPC: 0.51371 (Simulation time: 0 hr 21 min 47 sec) 
Heartbeat CPU  0 instructions:  403000000 cycles:  668854984 heartbeat IPC: 0.53044 cumulative IPC: 0.51376 (Simulation time: 0 hr 21 min 50 sec) 
Heartbeat CPU  0 instructions:  404000000 cycles:  670719471 heartbeat IPC: 0.53634 cumulative IPC: 0.51383 (Simulation time: 0 hr 21 min 54 sec) 
Heartbeat CPU  0 instructions:  405000003 cycles:  672566685 heartbeat IPC: 0.54136 cumulative IPC: 0.51392 (Simulation time: 0 hr 21 min 57 sec) 
Heartbeat CPU  0 instructions:  406000000 cycles:  674387503 heartbeat IPC: 0.54920 cumulative IPC: 0.51403 (Simulation time: 0 hr 22 min 1 sec) 
Heartbeat CPU  0 instructions:  407000001 cycles:  676193762 heartbeat IPC: 0.55363 cumulative IPC: 0.51415 (Simulation time: 0 hr 22 min 4 sec) 
Heartbeat CPU  0 instructions:  408000000 cycles:  678059999 heartbeat IPC: 0.53584 cumulative IPC: 0.51422 (Simulation time: 0 hr 22 min 8 sec) 
Heartbeat CPU  0 instructions:  409000002 cycles:  679955392 heartbeat IPC: 0.52760 cumulative IPC: 0.51426 (Simulation time: 0 hr 22 min 11 sec) 
Heartbeat CPU  0 instructions:  410000000 cycles:  681762991 heartbeat IPC: 0.55322 cumulative IPC: 0.51437 (Simulation time: 0 hr 22 min 14 sec) 
Heartbeat CPU  0 instructions:  411000001 cycles:  683634575 heartbeat IPC: 0.53431 cumulative IPC: 0.51444 (Simulation time: 0 hr 22 min 18 sec) 
Heartbeat CPU  0 instructions:  412000000 cycles:  685479531 heartbeat IPC: 0.54202 cumulative IPC: 0.51452 (Simulation time: 0 hr 22 min 21 sec) 
Heartbeat CPU  0 instructions:  413000002 cycles:  687336994 heartbeat IPC: 0.53837 cumulative IPC: 0.51459 (Simulation time: 0 hr 22 min 24 sec) 
Heartbeat CPU  0 instructions:  414000001 cycles:  689268148 heartbeat IPC: 0.51782 cumulative IPC: 0.51460 (Simulation time: 0 hr 22 min 28 sec) 
Heartbeat CPU  0 instructions:  415000002 cycles:  691094356 heartbeat IPC: 0.54758 cumulative IPC: 0.51470 (Simulation time: 0 hr 22 min 31 sec) 
Heartbeat CPU  0 instructions:  416000000 cycles:  692947900 heartbeat IPC: 0.53951 cumulative IPC: 0.51478 (Simulation time: 0 hr 22 min 35 sec) 
Heartbeat CPU  0 instructions:  417000003 cycles:  694791167 heartbeat IPC: 0.54252 cumulative IPC: 0.51486 (Simulation time: 0 hr 22 min 38 sec) 
Heartbeat CPU  0 instructions:  418000000 cycles:  696666374 heartbeat IPC: 0.53327 cumulative IPC: 0.51492 (Simulation time: 0 hr 22 min 41 sec) 
Heartbeat CPU  0 instructions:  419000001 cycles:  698478654 heartbeat IPC: 0.55179 cumulative IPC: 0.51502 (Simulation time: 0 hr 22 min 45 sec) 
Heartbeat CPU  0 instructions:  420000000 cycles:  700322892 heartbeat IPC: 0.54223 cumulative IPC: 0.51510 (Simulation time: 0 hr 22 min 48 sec) 
Heartbeat CPU  0 instructions:  421000000 cycles:  702167960 heartbeat IPC: 0.54199 cumulative IPC: 0.51518 (Simulation time: 0 hr 22 min 52 sec) 
Heartbeat CPU  0 instructions:  422000001 cycles:  703956855 heartbeat IPC: 0.55900 cumulative IPC: 0.51531 (Simulation time: 0 hr 22 min 55 sec) 
Heartbeat CPU  0 instructions:  423000001 cycles:  705854092 heartbeat IPC: 0.52708 cumulative IPC: 0.51535 (Simulation time: 0 hr 22 min 58 sec) 
Heartbeat CPU  0 instructions:  424000000 cycles:  707723653 heartbeat IPC: 0.53488 cumulative IPC: 0.51540 (Simulation time: 0 hr 23 min 2 sec) 
Heartbeat CPU  0 instructions:  425000001 cycles:  709513915 heartbeat IPC: 0.55858 cumulative IPC: 0.51553 (Simulation time: 0 hr 23 min 5 sec) 
Heartbeat CPU  0 instructions:  426000002 cycles:  711415985 heartbeat IPC: 0.52574 cumulative IPC: 0.51556 (Simulation time: 0 hr 23 min 9 sec) 
Heartbeat CPU  0 instructions:  427000000 cycles:  713313123 heartbeat IPC: 0.52711 cumulative IPC: 0.51559 (Simulation time: 0 hr 23 min 12 sec) 
Heartbeat CPU  0 instructions:  428000000 cycles:  715127996 heartbeat IPC: 0.55100 cumulative IPC: 0.51569 (Simulation time: 0 hr 23 min 15 sec) 
Heartbeat CPU  0 instructions:  429000000 cycles:  716957229 heartbeat IPC: 0.54668 cumulative IPC: 0.51578 (Simulation time: 0 hr 23 min 19 sec) 
Heartbeat CPU  0 instructions:  430000000 cycles:  718800368 heartbeat IPC: 0.54255 cumulative IPC: 0.51586 (Simulation time: 0 hr 23 min 22 sec) 
Heartbeat CPU  0 instructions:  431000000 cycles:  720813628 heartbeat IPC: 0.49671 cumulative IPC: 0.51580 (Simulation time: 0 hr 23 min 26 sec) 
Heartbeat CPU  0 instructions:  432000000 cycles:  722876703 heartbeat IPC: 0.48471 cumulative IPC: 0.51570 (Simulation time: 0 hr 23 min 29 sec) 
Heartbeat CPU  0 instructions:  433000001 cycles:  724791255 heartbeat IPC: 0.52232 cumulative IPC: 0.51572 (Simulation time: 0 hr 23 min 33 sec) 
Heartbeat CPU  0 instructions:  434000000 cycles:  726697897 heartbeat IPC: 0.52448 cumulative IPC: 0.51574 (Simulation time: 0 hr 23 min 36 sec) 
Heartbeat CPU  0 instructions:  435000003 cycles:  728527277 heartbeat IPC: 0.54663 cumulative IPC: 0.51583 (Simulation time: 0 hr 23 min 39 sec) 
Heartbeat CPU  0 instructions:  436000000 cycles:  730384439 heartbeat IPC: 0.53845 cumulative IPC: 0.51590 (Simulation time: 0 hr 23 min 43 sec) 
Heartbeat CPU  0 instructions:  437000002 cycles:  732230011 heartbeat IPC: 0.54184 cumulative IPC: 0.51597 (Simulation time: 0 hr 23 min 46 sec) 
Heartbeat CPU  0 instructions:  438000001 cycles:  734054989 heartbeat IPC: 0.54795 cumulative IPC: 0.51606 (Simulation time: 0 hr 23 min 50 sec) 
Heartbeat CPU  0 instructions:  439000000 cycles:  735877803 heartbeat IPC: 0.54860 cumulative IPC: 0.51615 (Simulation time: 0 hr 23 min 53 sec) 
Heartbeat CPU  0 instructions:  440000000 cycles:  737761562 heartbeat IPC: 0.53085 cumulative IPC: 0.51619 (Simulation time: 0 hr 23 min 56 sec) 
Heartbeat CPU  0 instructions:  441000001 cycles:  739676463 heartbeat IPC: 0.52222 cumulative IPC: 0.51621 (Simulation time: 0 hr 24 min 0 sec) 
Heartbeat CPU  0 instructions:  442000000 cycles:  741568443 heartbeat IPC: 0.52855 cumulative IPC: 0.51624 (Simulation time: 0 hr 24 min 3 sec) 
Heartbeat CPU  0 instructions:  443000000 cycles:  743469241 heartbeat IPC: 0.52609 cumulative IPC: 0.51627 (Simulation time: 0 hr 24 min 7 sec) 
Heartbeat CPU  0 instructions:  444000000 cycles:  745402428 heartbeat IPC: 0.51728 cumulative IPC: 0.51627 (Simulation time: 0 hr 24 min 10 sec) 
Heartbeat CPU  0 instructions:  445000002 cycles:  747318802 heartbeat IPC: 0.52182 cumulative IPC: 0.51629 (Simulation time: 0 hr 24 min 14 sec) 
Heartbeat CPU  0 instructions:  446000001 cycles:  749161718 heartbeat IPC: 0.54262 cumulative IPC: 0.51636 (Simulation time: 0 hr 24 min 17 sec) 
Heartbeat CPU  0 instructions:  447000003 cycles:  750997406 heartbeat IPC: 0.54476 cumulative IPC: 0.51644 (Simulation time: 0 hr 24 min 20 sec) 
Heartbeat CPU  0 instructions:  448000000 cycles:  752879615 heartbeat IPC: 0.53129 cumulative IPC: 0.51648 (Simulation time: 0 hr 24 min 24 sec) 
Heartbeat CPU  0 instructions:  449000000 cycles:  754781672 heartbeat IPC: 0.52575 cumulative IPC: 0.51651 (Simulation time: 0 hr 24 min 27 sec) 
Heartbeat CPU  0 instructions:  450000003 cycles:  756598000 heartbeat IPC: 0.55056 cumulative IPC: 0.51660 (Simulation time: 0 hr 24 min 31 sec) 
Heartbeat CPU  0 instructions:  451000000 cycles:  758472660 heartbeat IPC: 0.53343 cumulative IPC: 0.51665 (Simulation time: 0 hr 24 min 34 sec) 
Heartbeat CPU  0 instructions:  452000000 cycles:  760430023 heartbeat IPC: 0.51089 cumulative IPC: 0.51663 (Simulation time: 0 hr 24 min 38 sec) 
Heartbeat CPU  0 instructions:  453000001 cycles:  762376258 heartbeat IPC: 0.51381 cumulative IPC: 0.51662 (Simulation time: 0 hr 24 min 41 sec) 
Heartbeat CPU  0 instructions:  454000000 cycles:  764278596 heartbeat IPC: 0.52567 cumulative IPC: 0.51665 (Simulation time: 0 hr 24 min 44 sec) 
Heartbeat CPU  0 instructions:  455000000 cycles:  766191552 heartbeat IPC: 0.52275 cumulative IPC: 0.51666 (Simulation time: 0 hr 24 min 48 sec) 
Heartbeat CPU  0 instructions:  456000000 cycles:  768120674 heartbeat IPC: 0.51837 cumulative IPC: 0.51667 (Simulation time: 0 hr 24 min 51 sec) 
Heartbeat CPU  0 instructions:  457000002 cycles:  769961570 heartbeat IPC: 0.54321 cumulative IPC: 0.51674 (Simulation time: 0 hr 24 min 55 sec) 
Heartbeat CPU  0 instructions:  458000003 cycles:  771860032 heartbeat IPC: 0.52674 cumulative IPC: 0.51677 (Simulation time: 0 hr 24 min 58 sec) 
Heartbeat CPU  0 instructions:  459000001 cycles:  773681677 heartbeat IPC: 0.54895 cumulative IPC: 0.51685 (Simulation time: 0 hr 25 min 1 sec) 
Heartbeat CPU  0 instructions:  460000000 cycles:  775513683 heartbeat IPC: 0.54585 cumulative IPC: 0.51693 (Simulation time: 0 hr 25 min 5 sec) 
Heartbeat CPU  0 instructions:  461000002 cycles:  777361171 heartbeat IPC: 0.54128 cumulative IPC: 0.51699 (Simulation time: 0 hr 25 min 8 sec) 
Heartbeat CPU  0 instructions:  462000003 cycles:  779226012 heartbeat IPC: 0.53624 cumulative IPC: 0.51704 (Simulation time: 0 hr 25 min 12 sec) 
Heartbeat CPU  0 instructions:  463000002 cycles:  781196132 heartbeat IPC: 0.50758 cumulative IPC: 0.51702 (Simulation time: 0 hr 25 min 15 sec) 
Heartbeat CPU  0 instructions:  464000000 cycles:  783124765 heartbeat IPC: 0.51850 cumulative IPC: 0.51702 (Simulation time: 0 hr 25 min 18 sec) 
Heartbeat CPU  0 instructions:  465000001 cycles:  785047176 heartbeat IPC: 0.52018 cumulative IPC: 0.51703 (Simulation time: 0 hr 25 min 22 sec) 
Heartbeat CPU  0 instructions:  466000000 cycles:  786990948 heartbeat IPC: 0.51446 cumulative IPC: 0.51702 (Simulation time: 0 hr 25 min 25 sec) 
Heartbeat CPU  0 instructions:  467000001 cycles:  788894654 heartbeat IPC: 0.52529 cumulative IPC: 0.51704 (Simulation time: 0 hr 25 min 29 sec) 
Heartbeat CPU  0 instructions:  468000000 cycles:  790739376 heartbeat IPC: 0.54209 cumulative IPC: 0.51711 (Simulation time: 0 hr 25 min 32 sec) 
Heartbeat CPU  0 instructions:  469000002 cycles:  792579343 heartbeat IPC: 0.54349 cumulative IPC: 0.51718 (Simulation time: 0 hr 25 min 35 sec) 
Heartbeat CPU  0 instructions:  470000003 cycles:  794444844 heartbeat IPC: 0.53605 cumulative IPC: 0.51723 (Simulation time: 0 hr 25 min 39 sec) 
Heartbeat CPU  0 instructions:  471000002 cycles:  796297203 heartbeat IPC: 0.53985 cumulative IPC: 0.51728 (Simulation time: 0 hr 25 min 42 sec) 
Heartbeat CPU  0 instructions:  472000000 cycles:  798092780 heartbeat IPC: 0.55692 cumulative IPC: 0.51738 (Simulation time: 0 hr 25 min 46 sec) 
Heartbeat CPU  0 instructions:  473000001 cycles:  799998166 heartbeat IPC: 0.52483 cumulative IPC: 0.51740 (Simulation time: 0 hr 25 min 49 sec) 
Heartbeat CPU  0 instructions:  474000000 cycles:  801937136 heartbeat IPC: 0.51574 cumulative IPC: 0.51740 (Simulation time: 0 hr 25 min 52 sec) 
Heartbeat CPU  0 instructions:  475000001 cycles:  803873031 heartbeat IPC: 0.51656 cumulative IPC: 0.51740 (Simulation time: 0 hr 25 min 56 sec) 
Heartbeat CPU  0 instructions:  476000000 cycles:  805824146 heartbeat IPC: 0.51253 cumulative IPC: 0.51738 (Simulation time: 0 hr 25 min 59 sec) 
Heartbeat CPU  0 instructions:  477000003 cycles:  807728474 heartbeat IPC: 0.52512 cumulative IPC: 0.51740 (Simulation time: 0 hr 26 min 3 sec) 
Heartbeat CPU  0 instructions:  478000002 cycles:  809657129 heartbeat IPC: 0.51850 cumulative IPC: 0.51741 (Simulation time: 0 hr 26 min 6 sec) 
Heartbeat CPU  0 instructions:  479000003 cycles:  811470459 heartbeat IPC: 0.55147 cumulative IPC: 0.51749 (Simulation time: 0 hr 26 min 10 sec) 
Heartbeat CPU  0 instructions:  480000000 cycles:  813326951 heartbeat IPC: 0.53865 cumulative IPC: 0.51754 (Simulation time: 0 hr 26 min 13 sec) 
Heartbeat CPU  0 instructions:  481000000 cycles:  815163166 heartbeat IPC: 0.54460 cumulative IPC: 0.51761 (Simulation time: 0 hr 26 min 16 sec) 
Heartbeat CPU  0 instructions:  482000003 cycles:  816977261 heartbeat IPC: 0.55124 cumulative IPC: 0.51769 (Simulation time: 0 hr 26 min 20 sec) 
Heartbeat CPU  0 instructions:  483000000 cycles:  818846614 heartbeat IPC: 0.53494 cumulative IPC: 0.51774 (Simulation time: 0 hr 26 min 23 sec) 
Heartbeat CPU  0 instructions:  484000000 cycles:  820722452 heartbeat IPC: 0.53310 cumulative IPC: 0.51778 (Simulation time: 0 hr 26 min 27 sec) 
Heartbeat CPU  0 instructions:  485000001 cycles:  822703888 heartbeat IPC: 0.50468 cumulative IPC: 0.51774 (Simulation time: 0 hr 26 min 30 sec) 
Heartbeat CPU  0 instructions:  486000000 cycles:  824612983 heartbeat IPC: 0.52381 cumulative IPC: 0.51776 (Simulation time: 0 hr 26 min 33 sec) 
Heartbeat CPU  0 instructions:  487000001 cycles:  826522280 heartbeat IPC: 0.52375 cumulative IPC: 0.51777 (Simulation time: 0 hr 26 min 37 sec) 
Heartbeat CPU  0 instructions:  488000000 cycles:  828469830 heartbeat IPC: 0.51347 cumulative IPC: 0.51776 (Simulation time: 0 hr 26 min 40 sec) 
Heartbeat CPU  0 instructions:  489000002 cycles:  830354693 heartbeat IPC: 0.53054 cumulative IPC: 0.51779 (Simulation time: 0 hr 26 min 44 sec) 
Heartbeat CPU  0 instructions:  490000001 cycles:  832184905 heartbeat IPC: 0.54638 cumulative IPC: 0.51786 (Simulation time: 0 hr 26 min 47 sec) 
Heartbeat CPU  0 instructions:  491000001 cycles:  834034493 heartbeat IPC: 0.54066 cumulative IPC: 0.51792 (Simulation time: 0 hr 26 min 51 sec) 
Heartbeat CPU  0 instructions:  492000000 cycles:  835885216 heartbeat IPC: 0.54033 cumulative IPC: 0.51797 (Simulation time: 0 hr 26 min 54 sec) 
Heartbeat CPU  0 instructions:  493000003 cycles:  837744393 heartbeat IPC: 0.53787 cumulative IPC: 0.51802 (Simulation time: 0 hr 26 min 57 sec) 
Heartbeat CPU  0 instructions:  494000001 cycles:  839602895 heartbeat IPC: 0.53807 cumulative IPC: 0.51807 (Simulation time: 0 hr 27 min 1 sec) 
Heartbeat CPU  0 instructions:  495000000 cycles:  841533566 heartbeat IPC: 0.51795 cumulative IPC: 0.51807 (Simulation time: 0 hr 27 min 4 sec) 
Heartbeat CPU  0 instructions:  496000000 cycles:  843559499 heartbeat IPC: 0.49360 cumulative IPC: 0.51801 (Simulation time: 0 hr 27 min 8 sec) 
Heartbeat CPU  0 instructions:  497000002 cycles:  845514948 heartbeat IPC: 0.51139 cumulative IPC: 0.51799 (Simulation time: 0 hr 27 min 11 sec) 
Heartbeat CPU  0 instructions:  498000000 cycles:  847411966 heartbeat IPC: 0.52714 cumulative IPC: 0.51801 (Simulation time: 0 hr 27 min 15 sec) 
Heartbeat CPU  0 instructions:  499000001 cycles:  849326364 heartbeat IPC: 0.52236 cumulative IPC: 0.51802 (Simulation time: 0 hr 27 min 18 sec) 
Heartbeat CPU  0 instructions:  500000000 cycles:  851200846 heartbeat IPC: 0.53348 cumulative IPC: 0.51806 (Simulation time: 0 hr 27 min 21 sec) 
Heartbeat CPU  0 instructions:  501000000 cycles:  853040089 heartbeat IPC: 0.54370 cumulative IPC: 0.51812 (Simulation time: 0 hr 27 min 25 sec) 
Heartbeat CPU  0 instructions:  502000003 cycles:  854840727 heartbeat IPC: 0.55536 cumulative IPC: 0.51821 (Simulation time: 0 hr 27 min 28 sec) 
Heartbeat CPU  0 instructions:  503000003 cycles:  856715869 heartbeat IPC: 0.53329 cumulative IPC: 0.51824 (Simulation time: 0 hr 27 min 32 sec) 
Heartbeat CPU  0 instructions:  504000000 cycles:  858569857 heartbeat IPC: 0.53938 cumulative IPC: 0.51829 (Simulation time: 0 hr 27 min 35 sec) 
Heartbeat CPU  0 instructions:  505000001 cycles:  860480874 heartbeat IPC: 0.52328 cumulative IPC: 0.51831 (Simulation time: 0 hr 27 min 38 sec) 
Heartbeat CPU  0 instructions:  506000001 cycles:  862401425 heartbeat IPC: 0.52068 cumulative IPC: 0.51831 (Simulation time: 0 hr 27 min 42 sec) 
Heartbeat CPU  0 instructions:  507000003 cycles:  864333956 heartbeat IPC: 0.51746 cumulative IPC: 0.51831 (Simulation time: 0 hr 27 min 45 sec) 
Heartbeat CPU  0 instructions:  508000000 cycles:  866244236 heartbeat IPC: 0.52348 cumulative IPC: 0.51832 (Simulation time: 0 hr 27 min 49 sec) 
Heartbeat CPU  0 instructions:  509000000 cycles:  868173245 heartbeat IPC: 0.51840 cumulative IPC: 0.51832 (Simulation time: 0 hr 27 min 52 sec) 
Heartbeat CPU  0 instructions:  510000002 cycles:  870084355 heartbeat IPC: 0.52326 cumulative IPC: 0.51833 (Simulation time: 0 hr 27 min 56 sec) 
Heartbeat CPU  0 instructions:  511000003 cycles:  871985281 heartbeat IPC: 0.52606 cumulative IPC: 0.51835 (Simulation time: 0 hr 27 min 59 sec) 
Heartbeat CPU  0 instructions:  512000000 cycles:  873859770 heartbeat IPC: 0.53348 cumulative IPC: 0.51839 (Simulation time: 0 hr 28 min 2 sec) 
Heartbeat CPU  0 instructions:  513000001 cycles:  875705426 heartbeat IPC: 0.54181 cumulative IPC: 0.51844 (Simulation time: 0 hr 28 min 6 sec) 
Heartbeat CPU  0 instructions:  514000003 cycles:  877537963 heartbeat IPC: 0.54569 cumulative IPC: 0.51851 (Simulation time: 0 hr 28 min 9 sec) 
Heartbeat CPU  0 instructions:  515000002 cycles:  879406405 heartbeat IPC: 0.53520 cumulative IPC: 0.51854 (Simulation time: 0 hr 28 min 13 sec) 
Heartbeat CPU  0 instructions:  516000000 cycles:  881296913 heartbeat IPC: 0.52896 cumulative IPC: 0.51857 (Simulation time: 0 hr 28 min 16 sec) 
Heartbeat CPU  0 instructions:  517000001 cycles:  883213027 heartbeat IPC: 0.52189 cumulative IPC: 0.51858 (Simulation time: 0 hr 28 min 19 sec) 
Heartbeat CPU  0 instructions:  518000000 cycles:  885241055 heartbeat IPC: 0.49309 cumulative IPC: 0.51851 (Simulation time: 0 hr 28 min 23 sec) 
Heartbeat CPU  0 instructions:  519000003 cycles:  887190386 heartbeat IPC: 0.51300 cumulative IPC: 0.51850 (Simulation time: 0 hr 28 min 26 sec) 
Heartbeat CPU  0 instructions:  520000000 cycles:  889079250 heartbeat IPC: 0.52942 cumulative IPC: 0.51853 (Simulation time: 0 hr 28 min 30 sec) 
Heartbeat CPU  0 instructions:  521000000 cycles:  891052764 heartbeat IPC: 0.50671 cumulative IPC: 0.51850 (Simulation time: 0 hr 28 min 33 sec) 
Heartbeat CPU  0 instructions:  522000003 cycles:  892980648 heartbeat IPC: 0.51870 cumulative IPC: 0.51850 (Simulation time: 0 hr 28 min 37 sec) 
Heartbeat CPU  0 instructions:  523000002 cycles:  894873753 heartbeat IPC: 0.52823 cumulative IPC: 0.51852 (Simulation time: 0 hr 28 min 40 sec) 
Heartbeat CPU  0 instructions:  524000000 cycles:  896709406 heartbeat IPC: 0.54476 cumulative IPC: 0.51858 (Simulation time: 0 hr 28 min 43 sec) 
Heartbeat CPU  0 instructions:  525000001 cycles:  898545225 heartbeat IPC: 0.54472 cumulative IPC: 0.51864 (Simulation time: 0 hr 28 min 47 sec) 
Heartbeat CPU  0 instructions:  526000000 cycles:  900443705 heartbeat IPC: 0.52674 cumulative IPC: 0.51866 (Simulation time: 0 hr 28 min 50 sec) 
Heartbeat CPU  0 instructions:  527000002 cycles:  902320000 heartbeat IPC: 0.53297 cumulative IPC: 0.51869 (Simulation time: 0 hr 28 min 54 sec) 
Heartbeat CPU  0 instructions:  528000000 cycles:  904277695 heartbeat IPC: 0.51080 cumulative IPC: 0.51867 (Simulation time: 0 hr 28 min 57 sec) 
Heartbeat CPU  0 instructions:  529000002 cycles:  906214299 heartbeat IPC: 0.51637 cumulative IPC: 0.51866 (Simulation time: 0 hr 29 min 0 sec) 
Heartbeat CPU  0 instructions:  530000002 cycles:  908150770 heartbeat IPC: 0.51640 cumulative IPC: 0.51866 (Simulation time: 0 hr 29 min 4 sec) 
Heartbeat CPU  0 instructions:  531000002 cycles:  910062316 heartbeat IPC: 0.52314 cumulative IPC: 0.51867 (Simulation time: 0 hr 29 min 7 sec) 
Heartbeat CPU  0 instructions:  532000000 cycles:  911946542 heartbeat IPC: 0.53072 cumulative IPC: 0.51870 (Simulation time: 0 hr 29 min 11 sec) 
Heartbeat CPU  0 instructions:  533000000 cycles:  913816220 heartbeat IPC: 0.53485 cumulative IPC: 0.51873 (Simulation time: 0 hr 29 min 14 sec) 
Heartbeat CPU  0 instructions:  534000003 cycles:  915678903 heartbeat IPC: 0.53686 cumulative IPC: 0.51877 (Simulation time: 0 hr 29 min 17 sec) 
Heartbeat CPU  0 instructions:  535000003 cycles:  917535447 heartbeat IPC: 0.53864 cumulative IPC: 0.51882 (Simulation time: 0 hr 29 min 21 sec) 
Heartbeat CPU  0 instructions:  536000000 cycles:  919390880 heartbeat IPC: 0.53896 cumulative IPC: 0.51886 (Simulation time: 0 hr 29 min 24 sec) 
Heartbeat CPU  0 instructions:  537000001 cycles:  921267153 heartbeat IPC: 0.53297 cumulative IPC: 0.51889 (Simulation time: 0 hr 29 min 28 sec) 
Heartbeat CPU  0 instructions:  538000000 cycles:  923179622 heartbeat IPC: 0.52288 cumulative IPC: 0.51890 (Simulation time: 0 hr 29 min 31 sec) 
Heartbeat CPU  0 instructions:  539000000 cycles:  925146514 heartbeat IPC: 0.50842 cumulative IPC: 0.51888 (Simulation time: 0 hr 29 min 34 sec) 
Heartbeat CPU  0 instructions:  540000000 cycles:  926844647 heartbeat IPC: 0.58888 cumulative IPC: 0.51902 (Simulation time: 0 hr 29 min 38 sec) 
Heartbeat CPU  0 instructions:  541000002 cycles:  928180802 heartbeat IPC: 0.74842 cumulative IPC: 0.51938 (Simulation time: 0 hr 29 min 41 sec) 
Heartbeat CPU  0 instructions:  542000000 cycles:  929827588 heartbeat IPC: 0.60724 cumulative IPC: 0.51955 (Simulation time: 0 hr 29 min 44 sec) 
Heartbeat CPU  0 instructions:  543000002 cycles:  932052804 heartbeat IPC: 0.44940 cumulative IPC: 0.51937 (Simulation time: 0 hr 29 min 47 sec) 
Heartbeat CPU  0 instructions:  544000000 cycles:  933947624 heartbeat IPC: 0.52775 cumulative IPC: 0.51938 (Simulation time: 0 hr 29 min 51 sec) 
Heartbeat CPU  0 instructions:  545000002 cycles:  935857468 heartbeat IPC: 0.52360 cumulative IPC: 0.51939 (Simulation time: 0 hr 29 min 54 sec) 
Heartbeat CPU  0 instructions:  546000002 cycles:  937726514 heartbeat IPC: 0.53503 cumulative IPC: 0.51943 (Simulation time: 0 hr 29 min 58 sec) 
Heartbeat CPU  0 instructions:  547000000 cycles:  939574162 heartbeat IPC: 0.54123 cumulative IPC: 0.51947 (Simulation time: 0 hr 30 min 1 sec) 
Heartbeat CPU  0 instructions:  548000000 cycles:  941436611 heartbeat IPC: 0.53693 cumulative IPC: 0.51951 (Simulation time: 0 hr 30 min 4 sec) 
Heartbeat CPU  0 instructions:  549000002 cycles:  943295676 heartbeat IPC: 0.53791 cumulative IPC: 0.51955 (Simulation time: 0 hr 30 min 8 sec) 
Heartbeat CPU  0 instructions:  550000000 cycles:  945101514 heartbeat IPC: 0.55376 cumulative IPC: 0.51962 (Simulation time: 0 hr 30 min 11 sec) 
Heartbeat CPU  0 instructions:  551000000 cycles:  946898677 heartbeat IPC: 0.55643 cumulative IPC: 0.51970 (Simulation time: 0 hr 30 min 14 sec) 
Heartbeat CPU  0 instructions:  552000000 cycles:  948739704 heartbeat IPC: 0.54318 cumulative IPC: 0.51975 (Simulation time: 0 hr 30 min 18 sec) 
Heartbeat CPU  0 instructions:  553000001 cycles:  950571462 heartbeat IPC: 0.54592 cumulative IPC: 0.51980 (Simulation time: 0 hr 30 min 21 sec) 
Heartbeat CPU  0 instructions:  554000002 cycles:  952380200 heartbeat IPC: 0.55287 cumulative IPC: 0.51987 (Simulation time: 0 hr 30 min 24 sec) 
Heartbeat CPU  0 instructions:  555000000 cycles:  954244327 heartbeat IPC: 0.53644 cumulative IPC: 0.51991 (Simulation time: 0 hr 30 min 28 sec) 
Heartbeat CPU  0 instructions:  556000000 cycles:  956123474 heartbeat IPC: 0.53216 cumulative IPC: 0.51993 (Simulation time: 0 hr 30 min 31 sec) 
Heartbeat CPU  0 instructions:  557000001 cycles:  958065145 heartbeat IPC: 0.51502 cumulative IPC: 0.51992 (Simulation time: 0 hr 30 min 35 sec) 
Heartbeat CPU  0 instructions:  558000003 cycles:  959971026 heartbeat IPC: 0.52469 cumulative IPC: 0.51993 (Simulation time: 0 hr 30 min 38 sec) 
Heartbeat CPU  0 instructions:  559000000 cycles:  961852361 heartbeat IPC: 0.53154 cumulative IPC: 0.51996 (Simulation time: 0 hr 30 min 41 sec) 
Heartbeat CPU  0 instructions:  560000000 cycles:  963765587 heartbeat IPC: 0.52268 cumulative IPC: 0.51996 (Simulation time: 0 hr 30 min 45 sec) 
Heartbeat CPU  0 instructions:  561000000 cycles:  965604594 heartbeat IPC: 0.54377 cumulative IPC: 0.52001 (Simulation time: 0 hr 30 min 48 sec) 
Heartbeat CPU  0 instructions:  562000003 cycles:  967401639 heartbeat IPC: 0.55647 cumulative IPC: 0.52009 (Simulation time: 0 hr 30 min 51 sec) 
Heartbeat CPU  0 instructions:  563000003 cycles:  969208124 heartbeat IPC: 0.55356 cumulative IPC: 0.52016 (Simulation time: 0 hr 30 min 55 sec) 
Heartbeat CPU  0 instructions:  564000000 cycles:  971036190 heartbeat IPC: 0.54702 cumulative IPC: 0.52021 (Simulation time: 0 hr 30 min 58 sec) 
Heartbeat CPU  0 instructions:  565000001 cycles:  972838233 heartbeat IPC: 0.55493 cumulative IPC: 0.52028 (Simulation time: 0 hr 31 min 1 sec) 
Heartbeat CPU  0 instructions:  566000001 cycles:  974729665 heartbeat IPC: 0.52870 cumulative IPC: 0.52030 (Simulation time: 0 hr 31 min 5 sec) 
Heartbeat CPU  0 instructions:  567000000 cycles:  976657922 heartbeat IPC: 0.51860 cumulative IPC: 0.52029 (Simulation time: 0 hr 31 min 8 sec) 
Heartbeat CPU  0 instructions:  568000000 cycles:  978578674 heartbeat IPC: 0.52063 cumulative IPC: 0.52030 (Simulation time: 0 hr 31 min 12 sec) 
Heartbeat CPU  0 instructions:  569000003 cycles:  980468273 heartbeat IPC: 0.52921 cumulative IPC: 0.52031 (Simulation time: 0 hr 31 min 15 sec) 
Heartbeat CPU  0 instructions:  570000000 cycles:  982360284 heartbeat IPC: 0.52854 cumulative IPC: 0.52033 (Simulation time: 0 hr 31 min 18 sec) 
Heartbeat CPU  0 instructions:  571000000 cycles:  984196106 heartbeat IPC: 0.54472 cumulative IPC: 0.52038 (Simulation time: 0 hr 31 min 22 sec) 
Heartbeat CPU  0 instructions:  572000000 cycles:  985989474 heartbeat IPC: 0.55761 cumulative IPC: 0.52045 (Simulation time: 0 hr 31 min 25 sec) 
Heartbeat CPU  0 instructions:  573000000 cycles:  987848782 heartbeat IPC: 0.53783 cumulative IPC: 0.52049 (Simulation time: 0 hr 31 min 29 sec) 
Heartbeat CPU  0 instructions:  574000001 cycles:  989661267 heartbeat IPC: 0.55173 cumulative IPC: 0.52055 (Simulation time: 0 hr 31 min 32 sec) 
Heartbeat CPU  0 instructions:  575000001 cycles:  991491796 heartbeat IPC: 0.54629 cumulative IPC: 0.52060 (Simulation time: 0 hr 31 min 35 sec) 
Heartbeat CPU  0 instructions:  576000000 cycles:  993296046 heartbeat IPC: 0.55425 cumulative IPC: 0.52067 (Simulation time: 0 hr 31 min 39 sec) 
Heartbeat CPU  0 instructions:  577000001 cycles:  995180190 heartbeat IPC: 0.53075 cumulative IPC: 0.52069 (Simulation time: 0 hr 31 min 42 sec) 
Heartbeat CPU  0 instructions:  578000001 cycles:  997149230 heartbeat IPC: 0.50786 cumulative IPC: 0.52066 (Simulation time: 0 hr 31 min 45 sec) 
Heartbeat CPU  0 instructions:  579000000 cycles:  999105811 heartbeat IPC: 0.51110 cumulative IPC: 0.52064 (Simulation time: 0 hr 31 min 49 sec) 
Heartbeat CPU  0 instructions:  580000000 cycles: 1001054010 heartbeat IPC: 0.51329 cumulative IPC: 0.52063 (Simulation time: 0 hr 31 min 52 sec) 
Heartbeat CPU  0 instructions:  581000002 cycles: 1002913796 heartbeat IPC: 0.53770 cumulative IPC: 0.52066 (Simulation time: 0 hr 31 min 56 sec) 
Heartbeat CPU  0 instructions:  582000000 cycles: 1004757105 heartbeat IPC: 0.54250 cumulative IPC: 0.52071 (Simulation time: 0 hr 31 min 59 sec) 
Heartbeat CPU  0 instructions:  583000000 cycles: 1006577660 heartbeat IPC: 0.54928 cumulative IPC: 0.52076 (Simulation time: 0 hr 32 min 2 sec) 
Heartbeat CPU  0 instructions:  584000000 cycles: 1008378141 heartbeat IPC: 0.55541 cumulative IPC: 0.52083 (Simulation time: 0 hr 32 min 6 sec) 
Heartbeat CPU  0 instructions:  585000003 cycles: 1010192954 heartbeat IPC: 0.55102 cumulative IPC: 0.52089 (Simulation time: 0 hr 32 min 9 sec) 
Heartbeat CPU  0 instructions:  586000000 cycles: 1012021176 heartbeat IPC: 0.54698 cumulative IPC: 0.52094 (Simulation time: 0 hr 32 min 13 sec) 
Heartbeat CPU  0 instructions:  587000001 cycles: 1013835562 heartbeat IPC: 0.55115 cumulative IPC: 0.52100 (Simulation time: 0 hr 32 min 16 sec) 
Heartbeat CPU  0 instructions:  588000000 cycles: 1015751981 heartbeat IPC: 0.52181 cumulative IPC: 0.52100 (Simulation time: 0 hr 32 min 19 sec) 
Heartbeat CPU  0 instructions:  589000000 cycles: 1017635940 heartbeat IPC: 0.53080 cumulative IPC: 0.52102 (Simulation time: 0 hr 32 min 23 sec) 
Heartbeat CPU  0 instructions:  590000003 cycles: 1019565419 heartbeat IPC: 0.51828 cumulative IPC: 0.52101 (Simulation time: 0 hr 32 min 26 sec) 
Heartbeat CPU  0 instructions:  591000002 cycles: 1021482191 heartbeat IPC: 0.52171 cumulative IPC: 0.52101 (Simulation time: 0 hr 32 min 30 sec) 
Heartbeat CPU  0 instructions:  592000000 cycles: 1023368408 heartbeat IPC: 0.53016 cumulative IPC: 0.52103 (Simulation time: 0 hr 32 min 33 sec) 
Heartbeat CPU  0 instructions:  593000001 cycles: 1025220856 heartbeat IPC: 0.53983 cumulative IPC: 0.52107 (Simulation time: 0 hr 32 min 36 sec) 
Heartbeat CPU  0 instructions:  594000000 cycles: 1027044586 heartbeat IPC: 0.54833 cumulative IPC: 0.52112 (Simulation time: 0 hr 32 min 40 sec) 
Heartbeat CPU  0 instructions:  595000000 cycles: 1028889429 heartbeat IPC: 0.54205 cumulative IPC: 0.52116 (Simulation time: 0 hr 32 min 43 sec) 
Heartbeat CPU  0 instructions:  596000000 cycles: 1030708936 heartbeat IPC: 0.54960 cumulative IPC: 0.52122 (Simulation time: 0 hr 32 min 47 sec) 
Heartbeat CPU  0 instructions:  597000003 cycles: 1032583182 heartbeat IPC: 0.53355 cumulative IPC: 0.52124 (Simulation time: 0 hr 32 min 50 sec) 
Heartbeat CPU  0 instructions:  598000002 cycles: 1034431918 heartbeat IPC: 0.54091 cumulative IPC: 0.52128 (Simulation time: 0 hr 32 min 54 sec) 
Heartbeat CPU  0 instructions:  599000003 cycles: 1036316881 heartbeat IPC: 0.53051 cumulative IPC: 0.52130 (Simulation time: 0 hr 32 min 57 sec) 
Heartbeat CPU  0 instructions:  600000000 cycles: 1038229689 heartbeat IPC: 0.52279 cumulative IPC: 0.52130 (Simulation time: 0 hr 33 min 0 sec) 
Finished CPU 0 instructions: 500000000 cycles: 959139927 cumulative IPC: 0.52130 (Simulation time: 0 hr 33 min 0 sec) 

ChampSim completed all CPUs

[ROI Statistics]
Core_0_instructions 500000000
Core_0_cycles 959139927
Core_0_IPC 0.52130

Core_0_branch_prediction_accuracy 99.58640
Core_0_branch_MPKI 0.02120
Core_0_average_ROB_occupancy_at_mispredict 244.45515

Core_0_L1D_total_access 288460453
Core_0_L1D_total_hit 284150115
Core_0_L1D_total_miss 4310338
Core_0_L1D_loads 257481969
Core_0_L1D_load_hit 253172528
Core_0_L1D_load_miss 4309441
Core_0_L1D_RFOs 30978484
Core_0_L1D_RFO_hit 30977587
Core_0_L1D_RFO_miss 897
Core_0_L1D_prefetches 0
Core_0_L1D_prefetch_hit 0
Core_0_L1D_prefetch_miss 0
Core_0_L1D_writebacks 0
Core_0_L1D_writeback_hit 0
Core_0_L1D_writeback_miss 0
Core_0_L1D_prefetch_requested 0
Core_0_L1D_prefetch_dropped 0
Core_0_L1D_prefetch_issued 0
Core_0_L1D_prefetch_filled 0
Core_0_L1D_prefetch_useful 0
Core_0_L1D_prefetch_useless 0
Core_0_L1D_prefetch_late 0
Core_0_L1D_average_miss_latency 106.85468

Core_0_L1D_rq_access 307605993
Core_0_L1D_rq_forward 0
Core_0_L1D_rq_merged 50068901
Core_0_L1D_rq_to_cache 257513605
Core_0_L1D_rq_full 0

Core_0_L1D_wq_access 30978597
Core_0_L1D_wq_forward 23487
Core_0_L1D_wq_merged 0
Core_0_L1D_wq_to_cache 30978597
Core_0_L1D_wq_full 0

Core_0_L1D_pq_access 0
Core_0_L1D_pq_forward 0
Core_0_L1D_pq_merged 0
Core_0_L1D_pq_to_cache 0
Core_0_L1D_pq_full 0

Core_0_L1D_acc_epochs 1000731
Core_0_L1D_acc_level_0 1000731
Core_0_L1D_acc_level_1 0
Core_0_L1D_acc_level_2 0
Core_0_L1D_acc_level_3 0
Core_0_L1D_acc_level_4 0
Core_0_L1D_acc_level_5 0
Core_0_L1D_acc_level_6 0
Core_0_L1D_acc_level_7 0
Core_0_L1D_acc_level_8 0
Core_0_L1D_acc_level_9 0

Core_0_L1I_total_access 133879487
Core_0_L1I_total_hit 133879310
Core_0_L1I_total_miss 177
Core_0_L1I_loads 133879487
Core_0_L1I_load_hit 133879310
Core_0_L1I_load_miss 177
Core_0_L1I_RFOs 0
Core_0_L1I_RFO_hit 0
Core_0_L1I_RFO_miss 0
Core_0_L1I_prefetches 0
Core_0_L1I_prefetch_hit 0
Core_0_L1I_prefetch_miss 0
Core_0_L1I_writebacks 0
Core_0_L1I_writeback_hit 0
Core_0_L1I_writeback_miss 0
Core_0_L1I_prefetch_requested 0
Core_0_L1I_prefetch_dropped 0
Core_0_L1I_prefetch_issued 0
Core_0_L1I_prefetch_filled 0
Core_0_L1I_prefetch_useful 0
Core_0_L1I_prefetch_useless 0
Core_0_L1I_prefetch_late 0
Core_0_L1I_average_miss_latency 767.25424

Core_0_L1I_rq_access 500000003
Core_0_L1I_rq_forward 0
Core_0_L1I_rq_merged 366120444
Core_0_L1I_rq_to_cache 133879559
Core_0_L1I_rq_full 0

Core_0_L1I_wq_access 0
Core_0_L1I_wq_forward 0
Core_0_L1I_wq_merged 0
Core_0_L1I_wq_to_cache 0
Core_0_L1I_wq_full 0

Core_0_L1I_pq_access 0
Core_0_L1I_pq_forward 0
Core_0_L1I_pq_merged 0
Core_0_L1I_pq_to_cache 0
Core_0_L1I_pq_full 0

Core_0_L1I_acc_epochs 1000731
Core_0_L1I_acc_level_0 1000731
Core_0_L1I_acc_level_1 0
Core_0_L1I_acc_level_2 0
Core_0_L1I_acc_level_3 0
Core_0_L1I_acc_level_4 0
Core_0_L1I_acc_level_5 0
Core_0_L1I_acc_level_6 0
Core_0_L1I_acc_level_7 0
Core_0_L1I_acc_level_8 0
Core_0_L1I_acc_level_9 0

Core_0_L2C_total_access 9414928
Core_0_L2C_total_hit 5785092
Core_0_L2C_total_miss 3629836
Core_0_L2C_loads 4308685
Core_0_L2C_load_hit 3672717
Core_0_L2C_load_miss 635968
Core_0_L2C_RFOs 776
Core_0_L2C_RFO_hit 753
Core_0_L2C_RFO_miss 23
Core_0_L2C_prefetches 3179432
Core_0_L2C_prefetch_hit 185704
Core_0_L2C_prefetch_miss 2993728
Core_0_L2C_writebacks 1926035
Core_0_L2C_writeback_hit 1925918
Core_0_L2C_writeback_miss 117
Core_0_L2C_prefetch_requested 4518642
Core_0_L2C_prefetch_dropped 0
Core_0_L2C_prefetch_issued 4518642
Core_0_L2C_prefetch_filled 3467145
Core_0_L2C_prefetch_useful 3273600
Core_0_L2C_prefetch_useless 193291
Core_0_L2C_prefetch_late 3266
Core_0_L2C_average_miss_latency 1690.49268

Core_0_L2C_rq_access 4310515
Core_0_L2C_rq_forward 0
Core_0_L2C_rq_merged 0
Core_0_L2C_rq_to_cache 4309461
Core_0_L2C_rq_full 0

Core_0_L2C_wq_access 1926035
Core_0_L2C_wq_forward 1054
Core_0_L2C_wq_merged 0
Core_0_L2C_wq_to_cache 1926035
Core_0_L2C_wq_full 0

Core_0_L2C_pq_access 4518642
Core_0_L2C_pq_forward 0
Core_0_L2C_pq_merged 0
Core_0_L2C_pq_to_cache 4518642
Core_0_L2C_pq_full 0

Core_0_L2C_acc_epochs 1000731
Core_0_L2C_acc_level_0 448552
Core_0_L2C_acc_level_1 107823
Core_0_L2C_acc_level_2 82297
Core_0_L2C_acc_level_3 69551
Core_0_L2C_acc_level_4 50006
Core_0_L2C_acc_level_5 49755
Core_0_L2C_acc_level_6 31127
Core_0_L2C_acc_level_7 27645
Core_0_L2C_acc_level_8 19209
Core_0_L2C_acc_level_9 114766

Core_0_LLC_total_access 5959714
Core_0_LLC_total_hit 750508
Core_0_LLC_total_miss 5209206
Core_0_LLC_loads 632716
Core_0_LLC_load_hit 263818
Core_0_LLC_load_miss 368898
Core_0_LLC_RFOs 22
Core_0_LLC_RFO_hit 5
Core_0_LLC_RFO_miss 17
Core_0_LLC_prefetches 3417106
Core_0_LLC_prefetch_hit 138976
Core_0_LLC_prefetch_miss 3278130
Core_0_LLC_writebacks 1909870
Core_0_LLC_writeback_hit 347709
Core_0_LLC_writeback_miss 1562161
Core_0_LLC_prefetch_requested 0
Core_0_LLC_prefetch_dropped 0
Core_0_LLC_prefetch_issued 0
Core_0_LLC_prefetch_filled 4054303
Core_0_LLC_prefetch_useful 306074
Core_0_LLC_prefetch_useless 3746976
Core_0_LLC_prefetch_late 99
Core_0_LLC_average_miss_latency 1240.95117

Core_0_LLC_rq_access 632738
Core_0_LLC_rq_forward 0
Core_0_LLC_rq_merged 0
Core_0_LLC_rq_to_cache 632738
Core_0_LLC_rq_full 0

Core_0_LLC_wq_access 1909870
Core_0_LLC_wq_forward 0
Core_0_LLC_wq_merged 0
Core_0_LLC_wq_to_cache 1909870
Core_0_LLC_wq_full 0

Core_0_LLC_pq_access 4317471
Core_0_LLC_pq_forward 0
Core_0_LLC_pq_merged 0
Core_0_LLC_pq_to_cache 4317471
Core_0_LLC_pq_full 0

Core_0_LLC_acc_epochs 1013897
Core_0_LLC_acc_level_0 931711
Core_0_LLC_acc_level_1 39259
Core_0_LLC_acc_level_2 17350
Core_0_LLC_acc_level_3 8374
Core_0_LLC_acc_level_4 2248
Core_0_LLC_acc_level_5 6603
Core_0_LLC_acc_level_6 1399
Core_0_LLC_acc_level_7 1628
Core_0_LLC_acc_level_8 566
Core_0_LLC_acc_level_9 4759

Core_0_major_page_fault 0
Core_0_minor_page_fault 169020

[Bingo] PHT Access: 797060
[Bingo] PHT Hit PC+Addr: 11198
[Bingo] PHT Hit PC+Offs: 630454
[Bingo] PHT Miss: 155408
[Bingo] Prefetch PC+Addr: 0
[Bingo] Prefetch PC+Offs: 0
[Bingo] Useful PC+Addr: 0
[Bingo] Useful PC+Offs: 0
[Bingo] Useless PC+Addr: 0
[Bingo] Useless PC+Offs: 0
[Bingo] L1 Prefetch per Region: 0.00000
[Bingo] L2 Prefetch per Region: 6.75943
[Bingo] L3 Prefetch per Region: 1.37377
[Bingo] No Prefetch per Region: 23.86680
[Bingo] Number of Voters Mean: 13.21492
[Bingo] Number of Voters SD: 4.08160

Channel_0_RQ_row_buffer_hit 2311586
Channel_0_RQ_row_buffer_miss 1335459
Channel_0_WQ_row_buffer_hit 314573
Channel_0_WQ_row_buffer_miss 1574532
Channel_0_WQ_full 682
Channel_0_dbus_congested 5255611

avg_congested_cycle 103

DRAM_bw_pochs 4055585
DRAM_bw_level_0 3151361
DRAM_bw_level_1 225094
DRAM_bw_level_2 0
DRAM_bw_level_3 679130
