*************************************************
   ChampSim Multicore Out-of-Order Simulator
   Last compiled: Dec 11 2024 17:59:53
*************************************************
parsing config file: /home/functionmain/桌面/Pythia/config/bingo.ini

trace_0 /home/functionmain/桌面/Pythia/traces/459.GemsFDTD-1211B.champsimtrace.xz
adding L2C_PREFETCHER: Bingo
Initialize SHIP state
warmup_instructions 100000000
simulation_instructions 500000000
champsim_seed 263
measure_ipc 0
measure_ipc_epoch 1000
measure_dram_bw 1
measure_dram_bw_epoch 256
measure_cache_acc 1
measure_cache_acc_epoch 1024
l1d_perfect 0
l2c_perfect 0
llc_perfect 0
l1d_semi_perfect 0
l2c_semi_perfect 0
llc_semi_perfect 0
semi_perfect_cache_page_buffer_size 64

num_cpus 1
cpu_freq 4000
dram_io_freq 1200
page_size 4096
block_size 64
max_read_per_cycle 8
max_fill_per_cycle 1
dram_channels 1
log2_dram_channels 0
dram_ranks 1
dram_banks 8
dram_rows 65536
dram_columns 128
dram_row_size 8
dram_size 4096
dram_pages 1048576

fetch_width 6
decode_width 6
exec_width 4
lq_width 2
sq_width 2
retire_width 4
scheduler_size 128
branch_mispredict_penalty 20
rob_size 256
lq_size 72
sq_size 56
num_instr_destinations_sparc 4
num_instr_destinations 2
num_instr_sources 4

itlb_set 16
itlb_way 8
itlb_rq_size 16
itlb_wq_size 16
itlb_pq_size 0
itlb_mshr_size 8
itlb_latency 1

dtlb_set 16
dtlb_way 4
dtlb_rq_size 16
dtlb_wq_size 16
dtlb_pq_size 0
dtlb_mshr_size 8
dtlb_latency 1

stlb_set 128
stlb_way 12
stlb_rq_size 32
stlb_wq_size 32
stlb_pq_size 0
stlb_mshr_size 16
stlb_latency 8

l1i_size 32
l1i_set 64
l1i_way 8
l1i_rq_size 64
l1i_wq_size 64
l1i_pq_size 8
l1i_mshr_size 8
l1i_latency 1

l1d_size 32
l1d_set 64
l1d_way 8
l1d_rq_size 64
l1d_wq_size 64
l1d_pq_size 8
l1d_mshr_size 16
l1d_latency 4

l2c_size 256
l2c_set 512
l2c_way 8
l2c_rq_size 32
l2c_wq_size 32
l2c_pq_size 32
l2c_mshr_size 32
l2c_latency 10

llc_size 2048
llc_set 2048
llc_way 16
llc_rq_size 32
llc_wq_size 32
llc_pq_size 32
llc_mshr_size 64
llc_latency 20

dram_channel_width 8
dram_wq_size 64
dram_rq_size 64
tRP 15
tRCD 15
tCAS 12.5
dram_dbus_turn_around_time 30
dram_write_high_wm 56
dram_write_low_wm 48
min_dram_writes_per_switch 16
dram_mtps 1200
dram_dbus_return_time 26

bingo_region_size 2048
bingo_pattern_len 32
bingo_pc_width 16
bingo_min_addr_width 5
bingo_max_addr_width 16
bingo_ft_size 64
bingo_at_size 128
bingo_pht_size 4096
bingo_pht_ways 16
bingo_pf_streamer_size 128
bingo_debug_level 0
bingo_l1d_thresh 1.01
bingo_l2c_thresh 0.8
bingo_llc_thresh 0.05
bingo_pc_address_fill_level L2


Heartbeat CPU  0 instructions:    1000003 cycles:     792437 heartbeat IPC: 1.26193 cumulative IPC: 1.26193 (Simulation time: 0 hr 0 min 2 sec) 
Heartbeat CPU  0 instructions:    2000002 cycles:    1584171 heartbeat IPC: 1.26305 cumulative IPC: 1.26249 (Simulation time: 0 hr 0 min 5 sec) 
Heartbeat CPU  0 instructions:    3000003 cycles:    2375955 heartbeat IPC: 1.26297 cumulative IPC: 1.26265 (Simulation time: 0 hr 0 min 7 sec) 
Heartbeat CPU  0 instructions:    4000000 cycles:    3167748 heartbeat IPC: 1.26295 cumulative IPC: 1.26273 (Simulation time: 0 hr 0 min 10 sec) 
Heartbeat CPU  0 instructions:    5000000 cycles:    3959644 heartbeat IPC: 1.26279 cumulative IPC: 1.26274 (Simulation time: 0 hr 0 min 12 sec) 
Heartbeat CPU  0 instructions:    6000002 cycles:    4751420 heartbeat IPC: 1.26299 cumulative IPC: 1.26278 (Simulation time: 0 hr 0 min 15 sec) 
Heartbeat CPU  0 instructions:    7000000 cycles:    5543132 heartbeat IPC: 1.26308 cumulative IPC: 1.26282 (Simulation time: 0 hr 0 min 17 sec) 
Heartbeat CPU  0 instructions:    8000000 cycles:    6335037 heartbeat IPC: 1.26278 cumulative IPC: 1.26282 (Simulation time: 0 hr 0 min 20 sec) 
Heartbeat CPU  0 instructions:    9000000 cycles:    7126838 heartbeat IPC: 1.26294 cumulative IPC: 1.26283 (Simulation time: 0 hr 0 min 22 sec) 
Heartbeat CPU  0 instructions:   10000001 cycles:    7918441 heartbeat IPC: 1.26326 cumulative IPC: 1.26287 (Simulation time: 0 hr 0 min 25 sec) 
Heartbeat CPU  0 instructions:   11000000 cycles:    8709976 heartbeat IPC: 1.26337 cumulative IPC: 1.26292 (Simulation time: 0 hr 0 min 27 sec) 
Heartbeat CPU  0 instructions:   12000000 cycles:    9501805 heartbeat IPC: 1.26290 cumulative IPC: 1.26292 (Simulation time: 0 hr 0 min 30 sec) 
Heartbeat CPU  0 instructions:   13000000 cycles:   10293637 heartbeat IPC: 1.26289 cumulative IPC: 1.26292 (Simulation time: 0 hr 0 min 32 sec) 
Heartbeat CPU  0 instructions:   14000002 cycles:   11085335 heartbeat IPC: 1.26311 cumulative IPC: 1.26293 (Simulation time: 0 hr 0 min 35 sec) 
Heartbeat CPU  0 instructions:   15000000 cycles:   11877176 heartbeat IPC: 1.26288 cumulative IPC: 1.26293 (Simulation time: 0 hr 0 min 37 sec) 
Heartbeat CPU  0 instructions:   16000000 cycles:   12668896 heartbeat IPC: 1.26307 cumulative IPC: 1.26294 (Simulation time: 0 hr 0 min 40 sec) 
Heartbeat CPU  0 instructions:   17000001 cycles:   13460729 heartbeat IPC: 1.26289 cumulative IPC: 1.26293 (Simulation time: 0 hr 0 min 42 sec) 
Heartbeat CPU  0 instructions:   18000002 cycles:   14252433 heartbeat IPC: 1.26310 cumulative IPC: 1.26294 (Simulation time: 0 hr 0 min 45 sec) 
Heartbeat CPU  0 instructions:   19000000 cycles:   15044187 heartbeat IPC: 1.26302 cumulative IPC: 1.26295 (Simulation time: 0 hr 0 min 47 sec) 
Heartbeat CPU  0 instructions:   20000000 cycles:   15835595 heartbeat IPC: 1.26357 cumulative IPC: 1.26298 (Simulation time: 0 hr 0 min 50 sec) 
Heartbeat CPU  0 instructions:   21000000 cycles:   16627158 heartbeat IPC: 1.26332 cumulative IPC: 1.26299 (Simulation time: 0 hr 0 min 53 sec) 
Heartbeat CPU  0 instructions:   22000003 cycles:   17418895 heartbeat IPC: 1.26305 cumulative IPC: 1.26300 (Simulation time: 0 hr 0 min 55 sec) 
Heartbeat CPU  0 instructions:   23000000 cycles:   18210691 heartbeat IPC: 1.26295 cumulative IPC: 1.26299 (Simulation time: 0 hr 0 min 58 sec) 
Heartbeat CPU  0 instructions:   24000000 cycles:   19002483 heartbeat IPC: 1.26296 cumulative IPC: 1.26299 (Simulation time: 0 hr 1 min 0 sec) 
Heartbeat CPU  0 instructions:   25000001 cycles:   19794289 heartbeat IPC: 1.26294 cumulative IPC: 1.26299 (Simulation time: 0 hr 1 min 3 sec) 
Heartbeat CPU  0 instructions:   26000002 cycles:   20586113 heartbeat IPC: 1.26291 cumulative IPC: 1.26299 (Simulation time: 0 hr 1 min 5 sec) 
Heartbeat CPU  0 instructions:   27000001 cycles:   21377757 heartbeat IPC: 1.26319 cumulative IPC: 1.26300 (Simulation time: 0 hr 1 min 8 sec) 
Heartbeat CPU  0 instructions:   28000000 cycles:   22169600 heartbeat IPC: 1.26288 cumulative IPC: 1.26299 (Simulation time: 0 hr 1 min 10 sec) 
Heartbeat CPU  0 instructions:   29000001 cycles:   22961385 heartbeat IPC: 1.26297 cumulative IPC: 1.26299 (Simulation time: 0 hr 1 min 13 sec) 
Heartbeat CPU  0 instructions:   30000002 cycles:   23753052 heartbeat IPC: 1.26316 cumulative IPC: 1.26300 (Simulation time: 0 hr 1 min 15 sec) 
Heartbeat CPU  0 instructions:   31000001 cycles:   24544678 heartbeat IPC: 1.26322 cumulative IPC: 1.26300 (Simulation time: 0 hr 1 min 18 sec) 
Heartbeat CPU  0 instructions:   32000000 cycles:   25336113 heartbeat IPC: 1.26353 cumulative IPC: 1.26302 (Simulation time: 0 hr 1 min 20 sec) 
Heartbeat CPU  0 instructions:   33000001 cycles:   26127931 heartbeat IPC: 1.26292 cumulative IPC: 1.26302 (Simulation time: 0 hr 1 min 23 sec) 
Heartbeat CPU  0 instructions:   34000003 cycles:   26919701 heartbeat IPC: 1.26300 cumulative IPC: 1.26302 (Simulation time: 0 hr 1 min 26 sec) 
Heartbeat CPU  0 instructions:   35000001 cycles:   27711408 heartbeat IPC: 1.26309 cumulative IPC: 1.26302 (Simulation time: 0 hr 1 min 28 sec) 
Heartbeat CPU  0 instructions:   36000000 cycles:   28503252 heartbeat IPC: 1.26287 cumulative IPC: 1.26301 (Simulation time: 0 hr 1 min 31 sec) 
Heartbeat CPU  0 instructions:   37000000 cycles:   29295089 heartbeat IPC: 1.26289 cumulative IPC: 1.26301 (Simulation time: 0 hr 1 min 33 sec) 
Heartbeat CPU  0 instructions:   38000000 cycles:   30086791 heartbeat IPC: 1.26310 cumulative IPC: 1.26301 (Simulation time: 0 hr 1 min 36 sec) 
Heartbeat CPU  0 instructions:   39000001 cycles:   30878516 heartbeat IPC: 1.26307 cumulative IPC: 1.26301 (Simulation time: 0 hr 1 min 38 sec) 
Heartbeat CPU  0 instructions:   40000000 cycles:   31661244 heartbeat IPC: 1.27758 cumulative IPC: 1.26337 (Simulation time: 0 hr 1 min 41 sec) 
Heartbeat CPU  0 instructions:   41000001 cycles:   32434269 heartbeat IPC: 1.29362 cumulative IPC: 1.26410 (Simulation time: 0 hr 1 min 43 sec) 
Heartbeat CPU  0 instructions:   42000003 cycles:   33206996 heartbeat IPC: 1.29412 cumulative IPC: 1.26479 (Simulation time: 0 hr 1 min 46 sec) 
Heartbeat CPU  0 instructions:   43000001 cycles:   33982822 heartbeat IPC: 1.28895 cumulative IPC: 1.26535 (Simulation time: 0 hr 1 min 49 sec) 
Heartbeat CPU  0 instructions:   44000000 cycles:   34774302 heartbeat IPC: 1.26345 cumulative IPC: 1.26530 (Simulation time: 0 hr 1 min 51 sec) 
Heartbeat CPU  0 instructions:   45000001 cycles:   35565626 heartbeat IPC: 1.26371 cumulative IPC: 1.26527 (Simulation time: 0 hr 1 min 54 sec) 
Heartbeat CPU  0 instructions:   46000003 cycles:   36357216 heartbeat IPC: 1.26328 cumulative IPC: 1.26522 (Simulation time: 0 hr 1 min 56 sec) 
Heartbeat CPU  0 instructions:   47000001 cycles:   37148494 heartbeat IPC: 1.26378 cumulative IPC: 1.26519 (Simulation time: 0 hr 1 min 59 sec) 
Heartbeat CPU  0 instructions:   48000000 cycles:   37939905 heartbeat IPC: 1.26356 cumulative IPC: 1.26516 (Simulation time: 0 hr 2 min 1 sec) 
Heartbeat CPU  0 instructions:   49000001 cycles:   38731112 heartbeat IPC: 1.26389 cumulative IPC: 1.26513 (Simulation time: 0 hr 2 min 4 sec) 
Heartbeat CPU  0 instructions:   50000003 cycles:   39522243 heartbeat IPC: 1.26402 cumulative IPC: 1.26511 (Simulation time: 0 hr 2 min 7 sec) 
Heartbeat CPU  0 instructions:   51000001 cycles:   40313736 heartbeat IPC: 1.26343 cumulative IPC: 1.26508 (Simulation time: 0 hr 2 min 9 sec) 
Heartbeat CPU  0 instructions:   52000000 cycles:   41105135 heartbeat IPC: 1.26358 cumulative IPC: 1.26505 (Simulation time: 0 hr 2 min 12 sec) 
Heartbeat CPU  0 instructions:   53000003 cycles:   41896707 heartbeat IPC: 1.26331 cumulative IPC: 1.26502 (Simulation time: 0 hr 2 min 14 sec) 
Heartbeat CPU  0 instructions:   54000002 cycles:   42688174 heartbeat IPC: 1.26348 cumulative IPC: 1.26499 (Simulation time: 0 hr 2 min 17 sec) 
Heartbeat CPU  0 instructions:   55000001 cycles:   43479514 heartbeat IPC: 1.26368 cumulative IPC: 1.26496 (Simulation time: 0 hr 2 min 19 sec) 
Heartbeat CPU  0 instructions:   56000000 cycles:   44270727 heartbeat IPC: 1.26388 cumulative IPC: 1.26494 (Simulation time: 0 hr 2 min 22 sec) 
Heartbeat CPU  0 instructions:   57000000 cycles:   45062253 heartbeat IPC: 1.26338 cumulative IPC: 1.26492 (Simulation time: 0 hr 2 min 24 sec) 
Heartbeat CPU  0 instructions:   58000002 cycles:   45853584 heartbeat IPC: 1.26370 cumulative IPC: 1.26490 (Simulation time: 0 hr 2 min 27 sec) 
Heartbeat CPU  0 instructions:   59000000 cycles:   46645038 heartbeat IPC: 1.26349 cumulative IPC: 1.26487 (Simulation time: 0 hr 2 min 29 sec) 
Heartbeat CPU  0 instructions:   60000000 cycles:   47436327 heartbeat IPC: 1.26376 cumulative IPC: 1.26485 (Simulation time: 0 hr 2 min 32 sec) 
Heartbeat CPU  0 instructions:   61000000 cycles:   48227431 heartbeat IPC: 1.26406 cumulative IPC: 1.26484 (Simulation time: 0 hr 2 min 34 sec) 
Heartbeat CPU  0 instructions:   62000002 cycles:   49019033 heartbeat IPC: 1.26326 cumulative IPC: 1.26481 (Simulation time: 0 hr 2 min 37 sec) 
Heartbeat CPU  0 instructions:   63000000 cycles:   49810482 heartbeat IPC: 1.26350 cumulative IPC: 1.26479 (Simulation time: 0 hr 2 min 40 sec) 
Heartbeat CPU  0 instructions:   64000000 cycles:   50601823 heartbeat IPC: 1.26368 cumulative IPC: 1.26478 (Simulation time: 0 hr 2 min 42 sec) 
Heartbeat CPU  0 instructions:   65000000 cycles:   51393403 heartbeat IPC: 1.26330 cumulative IPC: 1.26475 (Simulation time: 0 hr 2 min 45 sec) 
Heartbeat CPU  0 instructions:   66000003 cycles:   52184689 heartbeat IPC: 1.26377 cumulative IPC: 1.26474 (Simulation time: 0 hr 2 min 47 sec) 
Heartbeat CPU  0 instructions:   67000000 cycles:   52976072 heartbeat IPC: 1.26361 cumulative IPC: 1.26472 (Simulation time: 0 hr 2 min 50 sec) 
Heartbeat CPU  0 instructions:   68000000 cycles:   53767298 heartbeat IPC: 1.26386 cumulative IPC: 1.26471 (Simulation time: 0 hr 2 min 52 sec) 
Heartbeat CPU  0 instructions:   69000001 cycles:   54558702 heartbeat IPC: 1.26358 cumulative IPC: 1.26469 (Simulation time: 0 hr 2 min 55 sec) 
Heartbeat CPU  0 instructions:   70000002 cycles:   55349953 heartbeat IPC: 1.26382 cumulative IPC: 1.26468 (Simulation time: 0 hr 2 min 57 sec) 
Heartbeat CPU  0 instructions:   71000001 cycles:   56141330 heartbeat IPC: 1.26362 cumulative IPC: 1.26467 (Simulation time: 0 hr 3 min 0 sec) 
Heartbeat CPU  0 instructions:   72000000 cycles:   56932458 heartbeat IPC: 1.26402 cumulative IPC: 1.26466 (Simulation time: 0 hr 3 min 2 sec) 
Heartbeat CPU  0 instructions:   73000003 cycles:   57724187 heartbeat IPC: 1.26306 cumulative IPC: 1.26463 (Simulation time: 0 hr 3 min 5 sec) 
Heartbeat CPU  0 instructions:   74000003 cycles:   58515428 heartbeat IPC: 1.26384 cumulative IPC: 1.26462 (Simulation time: 0 hr 3 min 7 sec) 
Heartbeat CPU  0 instructions:   75000001 cycles:   59306800 heartbeat IPC: 1.26363 cumulative IPC: 1.26461 (Simulation time: 0 hr 3 min 10 sec) 
Heartbeat CPU  0 instructions:   76000000 cycles:   60098386 heartbeat IPC: 1.26329 cumulative IPC: 1.26459 (Simulation time: 0 hr 3 min 13 sec) 
Heartbeat CPU  0 instructions:   77000002 cycles:   60889630 heartbeat IPC: 1.26384 cumulative IPC: 1.26458 (Simulation time: 0 hr 3 min 15 sec) 
Heartbeat CPU  0 instructions:   78000001 cycles:   61681046 heartbeat IPC: 1.26356 cumulative IPC: 1.26457 (Simulation time: 0 hr 3 min 18 sec) 
Heartbeat CPU  0 instructions:   79000000 cycles:   62472315 heartbeat IPC: 1.26379 cumulative IPC: 1.26456 (Simulation time: 0 hr 3 min 20 sec) 
Heartbeat CPU  0 instructions:   80000000 cycles:   63263720 heartbeat IPC: 1.26358 cumulative IPC: 1.26455 (Simulation time: 0 hr 3 min 23 sec) 
Heartbeat CPU  0 instructions:   81000000 cycles:   64055018 heartbeat IPC: 1.26375 cumulative IPC: 1.26454 (Simulation time: 0 hr 3 min 25 sec) 
Heartbeat CPU  0 instructions:   82000002 cycles:   64846271 heartbeat IPC: 1.26382 cumulative IPC: 1.26453 (Simulation time: 0 hr 3 min 28 sec) 
Heartbeat CPU  0 instructions:   83000000 cycles:   65637599 heartbeat IPC: 1.26370 cumulative IPC: 1.26452 (Simulation time: 0 hr 3 min 30 sec) 
Heartbeat CPU  0 instructions:   84000000 cycles:   66428941 heartbeat IPC: 1.26368 cumulative IPC: 1.26451 (Simulation time: 0 hr 3 min 33 sec) 
Heartbeat CPU  0 instructions:   85000000 cycles:   67220322 heartbeat IPC: 1.26361 cumulative IPC: 1.26450 (Simulation time: 0 hr 3 min 35 sec) 
Heartbeat CPU  0 instructions:   86000002 cycles:   68011582 heartbeat IPC: 1.26381 cumulative IPC: 1.26449 (Simulation time: 0 hr 3 min 38 sec) 
Heartbeat CPU  0 instructions:   87000000 cycles:   68802915 heartbeat IPC: 1.26369 cumulative IPC: 1.26448 (Simulation time: 0 hr 3 min 40 sec) 
Heartbeat CPU  0 instructions:   88000000 cycles:   69594113 heartbeat IPC: 1.26391 cumulative IPC: 1.26447 (Simulation time: 0 hr 3 min 43 sec) 
Heartbeat CPU  0 instructions:   89000000 cycles:   70385566 heartbeat IPC: 1.26350 cumulative IPC: 1.26446 (Simulation time: 0 hr 3 min 45 sec) 
Heartbeat CPU  0 instructions:   90000003 cycles:   71176818 heartbeat IPC: 1.26382 cumulative IPC: 1.26446 (Simulation time: 0 hr 3 min 48 sec) 
Heartbeat CPU  0 instructions:   91000000 cycles:   71968023 heartbeat IPC: 1.26389 cumulative IPC: 1.26445 (Simulation time: 0 hr 3 min 51 sec) 
Heartbeat CPU  0 instructions:   92000000 cycles:   72759355 heartbeat IPC: 1.26369 cumulative IPC: 1.26444 (Simulation time: 0 hr 3 min 53 sec) 
Heartbeat CPU  0 instructions:   93000001 cycles:   73550553 heartbeat IPC: 1.26391 cumulative IPC: 1.26444 (Simulation time: 0 hr 3 min 56 sec) 
Heartbeat CPU  0 instructions:   94000001 cycles:   74342011 heartbeat IPC: 1.26349 cumulative IPC: 1.26443 (Simulation time: 0 hr 3 min 58 sec) 
Heartbeat CPU  0 instructions:   95000000 cycles:   75133224 heartbeat IPC: 1.26388 cumulative IPC: 1.26442 (Simulation time: 0 hr 4 min 1 sec) 
Heartbeat CPU  0 instructions:   96000000 cycles:   75924483 heartbeat IPC: 1.26381 cumulative IPC: 1.26441 (Simulation time: 0 hr 4 min 3 sec) 
Heartbeat CPU  0 instructions:   97000003 cycles:   76715975 heartbeat IPC: 1.26344 cumulative IPC: 1.26440 (Simulation time: 0 hr 4 min 6 sec) 
Heartbeat CPU  0 instructions:   98000003 cycles:   77507253 heartbeat IPC: 1.26378 cumulative IPC: 1.26440 (Simulation time: 0 hr 4 min 8 sec) 
Heartbeat CPU  0 instructions:   99000003 cycles:   78298504 heartbeat IPC: 1.26382 cumulative IPC: 1.26439 (Simulation time: 0 hr 4 min 11 sec) 
Heartbeat CPU  0 instructions:  100000000 cycles:   79089769 heartbeat IPC: 1.26380 cumulative IPC: 1.26439 (Simulation time: 0 hr 4 min 13 sec) 

Warmup complete CPU  0 instructions:  100000001 cycles:   79089770 (Simulation time: 0 hr 4 min 13 sec) 

Heartbeat CPU  0 instructions:  101000001 cycles:   80793454 heartbeat IPC: 0.58696 cumulative IPC: 0.58696 (Simulation time: 0 hr 4 min 17 sec) 
Heartbeat CPU  0 instructions:  102000002 cycles:   82497887 heartbeat IPC: 0.58671 cumulative IPC: 0.58683 (Simulation time: 0 hr 4 min 20 sec) 
Heartbeat CPU  0 instructions:  103000003 cycles:   84196628 heartbeat IPC: 0.58867 cumulative IPC: 0.58745 (Simulation time: 0 hr 4 min 23 sec) 
Heartbeat CPU  0 instructions:  104000000 cycles:   85897658 heartbeat IPC: 0.58788 cumulative IPC: 0.58755 (Simulation time: 0 hr 4 min 26 sec) 
Heartbeat CPU  0 instructions:  105000001 cycles:   87608649 heartbeat IPC: 0.58446 cumulative IPC: 0.58693 (Simulation time: 0 hr 4 min 29 sec) 
Heartbeat CPU  0 instructions:  106000002 cycles:   89314664 heartbeat IPC: 0.58616 cumulative IPC: 0.58680 (Simulation time: 0 hr 4 min 32 sec) 
Heartbeat CPU  0 instructions:  107000000 cycles:   91018441 heartbeat IPC: 0.58693 cumulative IPC: 0.58682 (Simulation time: 0 hr 4 min 35 sec) 
Heartbeat CPU  0 instructions:  108000000 cycles:   92721434 heartbeat IPC: 0.58720 cumulative IPC: 0.58687 (Simulation time: 0 hr 4 min 38 sec) 
Heartbeat CPU  0 instructions:  109000000 cycles:   94422841 heartbeat IPC: 0.58775 cumulative IPC: 0.58697 (Simulation time: 0 hr 4 min 42 sec) 
Heartbeat CPU  0 instructions:  110000002 cycles:   96121225 heartbeat IPC: 0.58880 cumulative IPC: 0.58715 (Simulation time: 0 hr 4 min 45 sec) 
Heartbeat CPU  0 instructions:  111000001 cycles:   97816999 heartbeat IPC: 0.58970 cumulative IPC: 0.58738 (Simulation time: 0 hr 4 min 48 sec) 
Heartbeat CPU  0 instructions:  112000000 cycles:   99517818 heartbeat IPC: 0.58795 cumulative IPC: 0.58743 (Simulation time: 0 hr 4 min 51 sec) 
Heartbeat CPU  0 instructions:  113000000 cycles:  101226570 heartbeat IPC: 0.58522 cumulative IPC: 0.58726 (Simulation time: 0 hr 4 min 54 sec) 
Heartbeat CPU  0 instructions:  114000002 cycles:  102935128 heartbeat IPC: 0.58529 cumulative IPC: 0.58712 (Simulation time: 0 hr 4 min 57 sec) 
Heartbeat CPU  0 instructions:  115000002 cycles:  104638212 heartbeat IPC: 0.58717 cumulative IPC: 0.58712 (Simulation time: 0 hr 5 min 0 sec) 
Heartbeat CPU  0 instructions:  116000000 cycles:  106344279 heartbeat IPC: 0.58614 cumulative IPC: 0.58706 (Simulation time: 0 hr 5 min 3 sec) 
Heartbeat CPU  0 instructions:  117000001 cycles:  108047363 heartbeat IPC: 0.58717 cumulative IPC: 0.58707 (Simulation time: 0 hr 5 min 7 sec) 
Heartbeat CPU  0 instructions:  118000000 cycles:  109750289 heartbeat IPC: 0.58722 cumulative IPC: 0.58707 (Simulation time: 0 hr 5 min 10 sec) 
Heartbeat CPU  0 instructions:  119000000 cycles:  111452876 heartbeat IPC: 0.58734 cumulative IPC: 0.58709 (Simulation time: 0 hr 5 min 13 sec) 
Heartbeat CPU  0 instructions:  120000000 cycles:  113154856 heartbeat IPC: 0.58755 cumulative IPC: 0.58711 (Simulation time: 0 hr 5 min 16 sec) 
Heartbeat CPU  0 instructions:  121000003 cycles:  114856859 heartbeat IPC: 0.58754 cumulative IPC: 0.58713 (Simulation time: 0 hr 5 min 19 sec) 
Heartbeat CPU  0 instructions:  122000001 cycles:  116557730 heartbeat IPC: 0.58793 cumulative IPC: 0.58717 (Simulation time: 0 hr 5 min 22 sec) 
Heartbeat CPU  0 instructions:  123000000 cycles:  118257713 heartbeat IPC: 0.58824 cumulative IPC: 0.58721 (Simulation time: 0 hr 5 min 25 sec) 
Heartbeat CPU  0 instructions:  124000000 cycles:  119964662 heartbeat IPC: 0.58584 cumulative IPC: 0.58716 (Simulation time: 0 hr 5 min 29 sec) 
Heartbeat CPU  0 instructions:  125000001 cycles:  121663839 heartbeat IPC: 0.58852 cumulative IPC: 0.58721 (Simulation time: 0 hr 5 min 32 sec) 
Heartbeat CPU  0 instructions:  126000001 cycles:  123373082 heartbeat IPC: 0.58505 cumulative IPC: 0.58713 (Simulation time: 0 hr 5 min 35 sec) 
Heartbeat CPU  0 instructions:  127000003 cycles:  125078891 heartbeat IPC: 0.58623 cumulative IPC: 0.58710 (Simulation time: 0 hr 5 min 38 sec) 
Heartbeat CPU  0 instructions:  128000000 cycles:  126785836 heartbeat IPC: 0.58584 cumulative IPC: 0.58705 (Simulation time: 0 hr 5 min 41 sec) 
Heartbeat CPU  0 instructions:  129000003 cycles:  128490470 heartbeat IPC: 0.58664 cumulative IPC: 0.58704 (Simulation time: 0 hr 5 min 44 sec) 
Heartbeat CPU  0 instructions:  130000001 cycles:  130196244 heartbeat IPC: 0.58624 cumulative IPC: 0.58701 (Simulation time: 0 hr 5 min 47 sec) 
Heartbeat CPU  0 instructions:  131000000 cycles:  131897793 heartbeat IPC: 0.58770 cumulative IPC: 0.58703 (Simulation time: 0 hr 5 min 50 sec) 
Heartbeat CPU  0 instructions:  132000000 cycles:  133602849 heartbeat IPC: 0.58649 cumulative IPC: 0.58702 (Simulation time: 0 hr 5 min 53 sec) 
Heartbeat CPU  0 instructions:  133000000 cycles:  135300718 heartbeat IPC: 0.58897 cumulative IPC: 0.58707 (Simulation time: 0 hr 5 min 57 sec) 
Heartbeat CPU  0 instructions:  134000002 cycles:  136998556 heartbeat IPC: 0.58899 cumulative IPC: 0.58713 (Simulation time: 0 hr 6 min 0 sec) 
Heartbeat CPU  0 instructions:  135000003 cycles:  138701563 heartbeat IPC: 0.58720 cumulative IPC: 0.58713 (Simulation time: 0 hr 6 min 3 sec) 
Heartbeat CPU  0 instructions:  136000000 cycles:  140399669 heartbeat IPC: 0.58889 cumulative IPC: 0.58718 (Simulation time: 0 hr 6 min 6 sec) 
Heartbeat CPU  0 instructions:  137000000 cycles:  142113694 heartbeat IPC: 0.58342 cumulative IPC: 0.58708 (Simulation time: 0 hr 6 min 9 sec) 
Heartbeat CPU  0 instructions:  138000000 cycles:  143817998 heartbeat IPC: 0.58675 cumulative IPC: 0.58707 (Simulation time: 0 hr 6 min 12 sec) 
Heartbeat CPU  0 instructions:  139000002 cycles:  145520408 heartbeat IPC: 0.58740 cumulative IPC: 0.58708 (Simulation time: 0 hr 6 min 15 sec) 
Heartbeat CPU  0 instructions:  140000000 cycles:  147224658 heartbeat IPC: 0.58677 cumulative IPC: 0.58707 (Simulation time: 0 hr 6 min 19 sec) 
Heartbeat CPU  0 instructions:  141000002 cycles:  148926783 heartbeat IPC: 0.58750 cumulative IPC: 0.58708 (Simulation time: 0 hr 6 min 22 sec) 
Heartbeat CPU  0 instructions:  142000000 cycles:  150623662 heartbeat IPC: 0.58932 cumulative IPC: 0.58713 (Simulation time: 0 hr 6 min 25 sec) 
Heartbeat CPU  0 instructions:  143000003 cycles:  152332678 heartbeat IPC: 0.58513 cumulative IPC: 0.58709 (Simulation time: 0 hr 6 min 28 sec) 
Heartbeat CPU  0 instructions:  144000000 cycles:  154032900 heartbeat IPC: 0.58816 cumulative IPC: 0.58711 (Simulation time: 0 hr 6 min 31 sec) 
Heartbeat CPU  0 instructions:  145000003 cycles:  155739553 heartbeat IPC: 0.58594 cumulative IPC: 0.58709 (Simulation time: 0 hr 6 min 34 sec) 
Heartbeat CPU  0 instructions:  146000001 cycles:  157440555 heartbeat IPC: 0.58789 cumulative IPC: 0.58710 (Simulation time: 0 hr 6 min 37 sec) 
Heartbeat CPU  0 instructions:  147000003 cycles:  159136612 heartbeat IPC: 0.58960 cumulative IPC: 0.58716 (Simulation time: 0 hr 6 min 41 sec) 
Heartbeat CPU  0 instructions:  148000000 cycles:  160818412 heartbeat IPC: 0.59460 cumulative IPC: 0.58731 (Simulation time: 0 hr 6 min 44 sec) 
Heartbeat CPU  0 instructions:  149000003 cycles:  162497551 heartbeat IPC: 0.59555 cumulative IPC: 0.58748 (Simulation time: 0 hr 6 min 47 sec) 
Heartbeat CPU  0 instructions:  150000001 cycles:  164176340 heartbeat IPC: 0.59567 cumulative IPC: 0.58764 (Simulation time: 0 hr 6 min 50 sec) 
Heartbeat CPU  0 instructions:  151000003 cycles:  165855479 heartbeat IPC: 0.59554 cumulative IPC: 0.58779 (Simulation time: 0 hr 6 min 53 sec) 
Heartbeat CPU  0 instructions:  152000000 cycles:  167528053 heartbeat IPC: 0.59788 cumulative IPC: 0.58798 (Simulation time: 0 hr 6 min 56 sec) 
Heartbeat CPU  0 instructions:  153000003 cycles:  169201121 heartbeat IPC: 0.59771 cumulative IPC: 0.58816 (Simulation time: 0 hr 6 min 59 sec) 
Heartbeat CPU  0 instructions:  154000001 cycles:  170882162 heartbeat IPC: 0.59487 cumulative IPC: 0.58828 (Simulation time: 0 hr 7 min 2 sec) 
Heartbeat CPU  0 instructions:  155000001 cycles:  172557143 heartbeat IPC: 0.59702 cumulative IPC: 0.58844 (Simulation time: 0 hr 7 min 5 sec) 
Heartbeat CPU  0 instructions:  156000000 cycles:  174236599 heartbeat IPC: 0.59543 cumulative IPC: 0.58856 (Simulation time: 0 hr 7 min 9 sec) 
Heartbeat CPU  0 instructions:  157000001 cycles:  175918606 heartbeat IPC: 0.59453 cumulative IPC: 0.58867 (Simulation time: 0 hr 7 min 12 sec) 
Heartbeat CPU  0 instructions:  158000003 cycles:  177596793 heartbeat IPC: 0.59588 cumulative IPC: 0.58879 (Simulation time: 0 hr 7 min 15 sec) 
Heartbeat CPU  0 instructions:  159000003 cycles:  179282284 heartbeat IPC: 0.59330 cumulative IPC: 0.58887 (Simulation time: 0 hr 7 min 18 sec) 
Heartbeat CPU  0 instructions:  160000000 cycles:  180967182 heartbeat IPC: 0.59351 cumulative IPC: 0.58894 (Simulation time: 0 hr 7 min 21 sec) 
Heartbeat CPU  0 instructions:  161000002 cycles:  182646680 heartbeat IPC: 0.59542 cumulative IPC: 0.58905 (Simulation time: 0 hr 7 min 24 sec) 
Heartbeat CPU  0 instructions:  162000000 cycles:  184321693 heartbeat IPC: 0.59701 cumulative IPC: 0.58917 (Simulation time: 0 hr 7 min 27 sec) 
Heartbeat CPU  0 instructions:  163000000 cycles:  185987596 heartbeat IPC: 0.60028 cumulative IPC: 0.58935 (Simulation time: 0 hr 7 min 30 sec) 
Heartbeat CPU  0 instructions:  164000000 cycles:  187662535 heartbeat IPC: 0.59704 cumulative IPC: 0.58947 (Simulation time: 0 hr 7 min 34 sec) 
Heartbeat CPU  0 instructions:  165000002 cycles:  189340585 heartbeat IPC: 0.59593 cumulative IPC: 0.58956 (Simulation time: 0 hr 7 min 37 sec) 
Heartbeat CPU  0 instructions:  166000003 cycles:  191016815 heartbeat IPC: 0.59658 cumulative IPC: 0.58967 (Simulation time: 0 hr 7 min 40 sec) 
Heartbeat CPU  0 instructions:  167000002 cycles:  192697415 heartbeat IPC: 0.59503 cumulative IPC: 0.58975 (Simulation time: 0 hr 7 min 43 sec) 
Heartbeat CPU  0 instructions:  168000000 cycles:  194375238 heartbeat IPC: 0.59601 cumulative IPC: 0.58984 (Simulation time: 0 hr 7 min 46 sec) 
Heartbeat CPU  0 instructions:  169000001 cycles:  196058818 heartbeat IPC: 0.59397 cumulative IPC: 0.58990 (Simulation time: 0 hr 7 min 49 sec) 
Heartbeat CPU  0 instructions:  170000000 cycles:  197740385 heartbeat IPC: 0.59468 cumulative IPC: 0.58997 (Simulation time: 0 hr 7 min 52 sec) 
Heartbeat CPU  0 instructions:  171000003 cycles:  199422407 heartbeat IPC: 0.59452 cumulative IPC: 0.59003 (Simulation time: 0 hr 7 min 55 sec) 
Heartbeat CPU  0 instructions:  172000000 cycles:  201098288 heartbeat IPC: 0.59670 cumulative IPC: 0.59012 (Simulation time: 0 hr 7 min 58 sec) 
Heartbeat CPU  0 instructions:  173000000 cycles:  202779662 heartbeat IPC: 0.59475 cumulative IPC: 0.59019 (Simulation time: 0 hr 8 min 1 sec) 
Heartbeat CPU  0 instructions:  174000001 cycles:  204455284 heartbeat IPC: 0.59679 cumulative IPC: 0.59027 (Simulation time: 0 hr 8 min 5 sec) 
Heartbeat CPU  0 instructions:  175000003 cycles:  206129841 heartbeat IPC: 0.59717 cumulative IPC: 0.59036 (Simulation time: 0 hr 8 min 8 sec) 
Heartbeat CPU  0 instructions:  176000000 cycles:  207805286 heartbeat IPC: 0.59685 cumulative IPC: 0.59045 (Simulation time: 0 hr 8 min 11 sec) 
Heartbeat CPU  0 instructions:  177000003 cycles:  209486149 heartbeat IPC: 0.59493 cumulative IPC: 0.59051 (Simulation time: 0 hr 8 min 14 sec) 
Heartbeat CPU  0 instructions:  178000001 cycles:  211163486 heartbeat IPC: 0.59618 cumulative IPC: 0.59058 (Simulation time: 0 hr 8 min 17 sec) 
Heartbeat CPU  0 instructions:  179000000 cycles:  212840675 heartbeat IPC: 0.59624 cumulative IPC: 0.59065 (Simulation time: 0 hr 8 min 20 sec) 
Heartbeat CPU  0 instructions:  180000000 cycles:  214527697 heartbeat IPC: 0.59276 cumulative IPC: 0.59068 (Simulation time: 0 hr 8 min 23 sec) 
Heartbeat CPU  0 instructions:  181000000 cycles:  216204614 heartbeat IPC: 0.59633 cumulative IPC: 0.59075 (Simulation time: 0 hr 8 min 26 sec) 
Heartbeat CPU  0 instructions:  182000001 cycles:  217883813 heartbeat IPC: 0.59552 cumulative IPC: 0.59080 (Simulation time: 0 hr 8 min 30 sec) 
Heartbeat CPU  0 instructions:  183000002 cycles:  219567367 heartbeat IPC: 0.59398 cumulative IPC: 0.59084 (Simulation time: 0 hr 8 min 33 sec) 
Heartbeat CPU  0 instructions:  184000000 cycles:  221237090 heartbeat IPC: 0.59890 cumulative IPC: 0.59094 (Simulation time: 0 hr 8 min 36 sec) 
Heartbeat CPU  0 instructions:  185000001 cycles:  222917304 heartbeat IPC: 0.59516 cumulative IPC: 0.59099 (Simulation time: 0 hr 8 min 39 sec) 
Heartbeat CPU  0 instructions:  186000000 cycles:  224594196 heartbeat IPC: 0.59634 cumulative IPC: 0.59105 (Simulation time: 0 hr 8 min 42 sec) 
Heartbeat CPU  0 instructions:  187000000 cycles:  226544259 heartbeat IPC: 0.51280 cumulative IPC: 0.59001 (Simulation time: 0 hr 8 min 45 sec) 
Heartbeat CPU  0 instructions:  188000000 cycles:  228098348 heartbeat IPC: 0.64346 cumulative IPC: 0.59057 (Simulation time: 0 hr 8 min 48 sec) 
Heartbeat CPU  0 instructions:  189000002 cycles:  229616548 heartbeat IPC: 0.65868 cumulative IPC: 0.59126 (Simulation time: 0 hr 8 min 51 sec) 
Heartbeat CPU  0 instructions:  190000003 cycles:  231167614 heartbeat IPC: 0.64472 cumulative IPC: 0.59180 (Simulation time: 0 hr 8 min 54 sec) 
Heartbeat CPU  0 instructions:  191000000 cycles:  232705821 heartbeat IPC: 0.65011 cumulative IPC: 0.59239 (Simulation time: 0 hr 8 min 57 sec) 
Heartbeat CPU  0 instructions:  192000000 cycles:  234234686 heartbeat IPC: 0.65408 cumulative IPC: 0.59299 (Simulation time: 0 hr 9 min 0 sec) 
Heartbeat CPU  0 instructions:  193000001 cycles:  235774460 heartbeat IPC: 0.64945 cumulative IPC: 0.59355 (Simulation time: 0 hr 9 min 3 sec) 
Heartbeat CPU  0 instructions:  194000000 cycles:  237317685 heartbeat IPC: 0.64799 cumulative IPC: 0.59408 (Simulation time: 0 hr 9 min 6 sec) 
Heartbeat CPU  0 instructions:  195000000 cycles:  238863688 heartbeat IPC: 0.64683 cumulative IPC: 0.59459 (Simulation time: 0 hr 9 min 9 sec) 
Heartbeat CPU  0 instructions:  196000000 cycles:  240398744 heartbeat IPC: 0.65144 cumulative IPC: 0.59513 (Simulation time: 0 hr 9 min 12 sec) 
Heartbeat CPU  0 instructions:  197000000 cycles:  241882589 heartbeat IPC: 0.67392 cumulative IPC: 0.59585 (Simulation time: 0 hr 9 min 15 sec) 
Heartbeat CPU  0 instructions:  198000003 cycles:  243401756 heartbeat IPC: 0.65826 cumulative IPC: 0.59643 (Simulation time: 0 hr 9 min 18 sec) 
Heartbeat CPU  0 instructions:  199000001 cycles:  244946914 heartbeat IPC: 0.64718 cumulative IPC: 0.59690 (Simulation time: 0 hr 9 min 21 sec) 
Heartbeat CPU  0 instructions:  200000000 cycles:  246471817 heartbeat IPC: 0.65578 cumulative IPC: 0.59744 (Simulation time: 0 hr 9 min 24 sec) 
Heartbeat CPU  0 instructions:  201000003 cycles:  247996030 heartbeat IPC: 0.65608 cumulative IPC: 0.59796 (Simulation time: 0 hr 9 min 27 sec) 
Heartbeat CPU  0 instructions:  202000000 cycles:  249536505 heartbeat IPC: 0.64915 cumulative IPC: 0.59843 (Simulation time: 0 hr 9 min 30 sec) 
Heartbeat CPU  0 instructions:  203000001 cycles:  251069862 heartbeat IPC: 0.65216 cumulative IPC: 0.59891 (Simulation time: 0 hr 9 min 33 sec) 
Heartbeat CPU  0 instructions:  204000000 cycles:  252609499 heartbeat IPC: 0.64950 cumulative IPC: 0.59936 (Simulation time: 0 hr 9 min 36 sec) 
Heartbeat CPU  0 instructions:  205000000 cycles:  254152331 heartbeat IPC: 0.64816 cumulative IPC: 0.59979 (Simulation time: 0 hr 9 min 39 sec) 
Heartbeat CPU  0 instructions:  206000000 cycles:  255658308 heartbeat IPC: 0.66402 cumulative IPC: 0.60033 (Simulation time: 0 hr 9 min 42 sec) 
Heartbeat CPU  0 instructions:  207000000 cycles:  257202667 heartbeat IPC: 0.64752 cumulative IPC: 0.60074 (Simulation time: 0 hr 9 min 46 sec) 
Heartbeat CPU  0 instructions:  208000000 cycles:  258745492 heartbeat IPC: 0.64816 cumulative IPC: 0.60115 (Simulation time: 0 hr 9 min 49 sec) 
Heartbeat CPU  0 instructions:  209000003 cycles:  260261934 heartbeat IPC: 0.65944 cumulative IPC: 0.60164 (Simulation time: 0 hr 9 min 52 sec) 
Heartbeat CPU  0 instructions:  210000000 cycles:  261819520 heartbeat IPC: 0.64202 cumulative IPC: 0.60198 (Simulation time: 0 hr 9 min 55 sec) 
Heartbeat CPU  0 instructions:  211000003 cycles:  263342100 heartbeat IPC: 0.65678 cumulative IPC: 0.60243 (Simulation time: 0 hr 9 min 58 sec) 
Heartbeat CPU  0 instructions:  212000000 cycles:  264886761 heartbeat IPC: 0.64739 cumulative IPC: 0.60281 (Simulation time: 0 hr 10 min 1 sec) 
Heartbeat CPU  0 instructions:  213000003 cycles:  266435042 heartbeat IPC: 0.64588 cumulative IPC: 0.60316 (Simulation time: 0 hr 10 min 4 sec) 
Heartbeat CPU  0 instructions:  214000000 cycles:  267976686 heartbeat IPC: 0.64866 cumulative IPC: 0.60354 (Simulation time: 0 hr 10 min 7 sec) 
Heartbeat CPU  0 instructions:  215000002 cycles:  269497600 heartbeat IPC: 0.65750 cumulative IPC: 0.60397 (Simulation time: 0 hr 10 min 10 sec) 
Heartbeat CPU  0 instructions:  216000000 cycles:  271030905 heartbeat IPC: 0.65218 cumulative IPC: 0.60435 (Simulation time: 0 hr 10 min 13 sec) 
Heartbeat CPU  0 instructions:  217000001 cycles:  272557099 heartbeat IPC: 0.65523 cumulative IPC: 0.60475 (Simulation time: 0 hr 10 min 16 sec) 
Heartbeat CPU  0 instructions:  218000000 cycles:  274069486 heartbeat IPC: 0.66121 cumulative IPC: 0.60519 (Simulation time: 0 hr 10 min 19 sec) 
Heartbeat CPU  0 instructions:  219000000 cycles:  275612377 heartbeat IPC: 0.64813 cumulative IPC: 0.60553 (Simulation time: 0 hr 10 min 22 sec) 
Heartbeat CPU  0 instructions:  220000000 cycles:  277136340 heartbeat IPC: 0.65618 cumulative IPC: 0.60592 (Simulation time: 0 hr 10 min 25 sec) 
Heartbeat CPU  0 instructions:  221000000 cycles:  278677390 heartbeat IPC: 0.64891 cumulative IPC: 0.60625 (Simulation time: 0 hr 10 min 28 sec) 
Heartbeat CPU  0 instructions:  222000000 cycles:  280208032 heartbeat IPC: 0.65332 cumulative IPC: 0.60661 (Simulation time: 0 hr 10 min 31 sec) 
Heartbeat CPU  0 instructions:  223000003 cycles:  281721701 heartbeat IPC: 0.66065 cumulative IPC: 0.60701 (Simulation time: 0 hr 10 min 34 sec) 
Heartbeat CPU  0 instructions:  224000000 cycles:  283277799 heartbeat IPC: 0.64263 cumulative IPC: 0.60728 (Simulation time: 0 hr 10 min 37 sec) 
Heartbeat CPU  0 instructions:  225000001 cycles:  284812572 heartbeat IPC: 0.65156 cumulative IPC: 0.60761 (Simulation time: 0 hr 10 min 40 sec) 
Heartbeat CPU  0 instructions:  226000002 cycles:  286334973 heartbeat IPC: 0.65686 cumulative IPC: 0.60798 (Simulation time: 0 hr 10 min 43 sec) 
Heartbeat CPU  0 instructions:  227000003 cycles:  287864635 heartbeat IPC: 0.65374 cumulative IPC: 0.60831 (Simulation time: 0 hr 10 min 46 sec) 
Heartbeat CPU  0 instructions:  228000000 cycles:  289395688 heartbeat IPC: 0.65314 cumulative IPC: 0.60864 (Simulation time: 0 hr 10 min 49 sec) 
Heartbeat CPU  0 instructions:  229000000 cycles:  290914360 heartbeat IPC: 0.65847 cumulative IPC: 0.60899 (Simulation time: 0 hr 10 min 52 sec) 
Heartbeat CPU  0 instructions:  230000003 cycles:  292439482 heartbeat IPC: 0.65569 cumulative IPC: 0.60933 (Simulation time: 0 hr 10 min 55 sec) 
Heartbeat CPU  0 instructions:  231000000 cycles:  293960124 heartbeat IPC: 0.65762 cumulative IPC: 0.60967 (Simulation time: 0 hr 10 min 58 sec) 
Heartbeat CPU  0 instructions:  232000000 cycles:  295468286 heartbeat IPC: 0.66306 cumulative IPC: 0.61004 (Simulation time: 0 hr 11 min 1 sec) 
Heartbeat CPU  0 instructions:  233000003 cycles:  297010553 heartbeat IPC: 0.64840 cumulative IPC: 0.61031 (Simulation time: 0 hr 11 min 4 sec) 
Heartbeat CPU  0 instructions:  234000002 cycles:  298512859 heartbeat IPC: 0.66564 cumulative IPC: 0.61069 (Simulation time: 0 hr 11 min 7 sec) 
Heartbeat CPU  0 instructions:  235000001 cycles:  300039785 heartbeat IPC: 0.65491 cumulative IPC: 0.61100 (Simulation time: 0 hr 11 min 10 sec) 
Heartbeat CPU  0 instructions:  236000000 cycles:  301580246 heartbeat IPC: 0.64916 cumulative IPC: 0.61126 (Simulation time: 0 hr 11 min 13 sec) 
Heartbeat CPU  0 instructions:  237000002 cycles:  303089671 heartbeat IPC: 0.66251 cumulative IPC: 0.61161 (Simulation time: 0 hr 11 min 16 sec) 
Heartbeat CPU  0 instructions:  238000000 cycles:  304653747 heartbeat IPC: 0.63935 cumulative IPC: 0.61180 (Simulation time: 0 hr 11 min 19 sec) 
Heartbeat CPU  0 instructions:  239000000 cycles:  306208753 heartbeat IPC: 0.64308 cumulative IPC: 0.61201 (Simulation time: 0 hr 11 min 22 sec) 
Heartbeat CPU  0 instructions:  240000000 cycles:  307709799 heartbeat IPC: 0.66620 cumulative IPC: 0.61237 (Simulation time: 0 hr 11 min 25 sec) 
Heartbeat CPU  0 instructions:  241000002 cycles:  309243564 heartbeat IPC: 0.65199 cumulative IPC: 0.61263 (Simulation time: 0 hr 11 min 28 sec) 
Heartbeat CPU  0 instructions:  242000000 cycles:  310774808 heartbeat IPC: 0.65306 cumulative IPC: 0.61290 (Simulation time: 0 hr 11 min 31 sec) 
Heartbeat CPU  0 instructions:  243000003 cycles:  312271069 heartbeat IPC: 0.66833 cumulative IPC: 0.61326 (Simulation time: 0 hr 11 min 34 sec) 
Heartbeat CPU  0 instructions:  244000000 cycles:  313789474 heartbeat IPC: 0.65858 cumulative IPC: 0.61355 (Simulation time: 0 hr 11 min 37 sec) 
Heartbeat CPU  0 instructions:  245000002 cycles:  315288580 heartbeat IPC: 0.66707 cumulative IPC: 0.61389 (Simulation time: 0 hr 11 min 40 sec) 
Heartbeat CPU  0 instructions:  246000003 cycles:  316802703 heartbeat IPC: 0.66045 cumulative IPC: 0.61419 (Simulation time: 0 hr 11 min 43 sec) 
Heartbeat CPU  0 instructions:  247000002 cycles:  318322521 heartbeat IPC: 0.65797 cumulative IPC: 0.61446 (Simulation time: 0 hr 11 min 46 sec) 
Heartbeat CPU  0 instructions:  248000000 cycles:  319835933 heartbeat IPC: 0.66076 cumulative IPC: 0.61476 (Simulation time: 0 hr 11 min 49 sec) 
Heartbeat CPU  0 instructions:  249000002 cycles:  321380384 heartbeat IPC: 0.64748 cumulative IPC: 0.61496 (Simulation time: 0 hr 11 min 52 sec) 
Heartbeat CPU  0 instructions:  250000003 cycles:  322911899 heartbeat IPC: 0.65295 cumulative IPC: 0.61520 (Simulation time: 0 hr 11 min 56 sec) 
Heartbeat CPU  0 instructions:  251000001 cycles:  324426777 heartbeat IPC: 0.66012 cumulative IPC: 0.61548 (Simulation time: 0 hr 11 min 59 sec) 
Heartbeat CPU  0 instructions:  252000000 cycles:  325945591 heartbeat IPC: 0.65841 cumulative IPC: 0.61574 (Simulation time: 0 hr 12 min 2 sec) 
Heartbeat CPU  0 instructions:  253000000 cycles:  327497794 heartbeat IPC: 0.64425 cumulative IPC: 0.61592 (Simulation time: 0 hr 12 min 5 sec) 
Heartbeat CPU  0 instructions:  254000003 cycles:  328988507 heartbeat IPC: 0.67082 cumulative IPC: 0.61625 (Simulation time: 0 hr 12 min 8 sec) 
Heartbeat CPU  0 instructions:  255000000 cycles:  330512742 heartbeat IPC: 0.65606 cumulative IPC: 0.61649 (Simulation time: 0 hr 12 min 11 sec) 
Heartbeat CPU  0 instructions:  256000000 cycles:  332043570 heartbeat IPC: 0.65324 cumulative IPC: 0.61671 (Simulation time: 0 hr 12 min 14 sec) 
Heartbeat CPU  0 instructions:  257000003 cycles:  333551455 heartbeat IPC: 0.66318 cumulative IPC: 0.61699 (Simulation time: 0 hr 12 min 17 sec) 
Heartbeat CPU  0 instructions:  258000003 cycles:  335064935 heartbeat IPC: 0.66073 cumulative IPC: 0.61725 (Simulation time: 0 hr 12 min 20 sec) 
Heartbeat CPU  0 instructions:  259000002 cycles:  336575751 heartbeat IPC: 0.66189 cumulative IPC: 0.61751 (Simulation time: 0 hr 12 min 23 sec) 
Heartbeat CPU  0 instructions:  260000000 cycles:  338083267 heartbeat IPC: 0.66334 cumulative IPC: 0.61778 (Simulation time: 0 hr 12 min 26 sec) 
Heartbeat CPU  0 instructions:  261000000 cycles:  339616233 heartbeat IPC: 0.65233 cumulative IPC: 0.61798 (Simulation time: 0 hr 12 min 29 sec) 
Heartbeat CPU  0 instructions:  262000001 cycles:  341133776 heartbeat IPC: 0.65896 cumulative IPC: 0.61822 (Simulation time: 0 hr 12 min 32 sec) 
Heartbeat CPU  0 instructions:  263000002 cycles:  342678577 heartbeat IPC: 0.64733 cumulative IPC: 0.61839 (Simulation time: 0 hr 12 min 35 sec) 
Heartbeat CPU  0 instructions:  264000000 cycles:  344225635 heartbeat IPC: 0.64639 cumulative IPC: 0.61855 (Simulation time: 0 hr 12 min 38 sec) 
Heartbeat CPU  0 instructions:  265000003 cycles:  345761347 heartbeat IPC: 0.65117 cumulative IPC: 0.61874 (Simulation time: 0 hr 12 min 41 sec) 
Heartbeat CPU  0 instructions:  266000002 cycles:  347275887 heartbeat IPC: 0.66027 cumulative IPC: 0.61897 (Simulation time: 0 hr 12 min 44 sec) 
Heartbeat CPU  0 instructions:  267000003 cycles:  348831510 heartbeat IPC: 0.64283 cumulative IPC: 0.61911 (Simulation time: 0 hr 12 min 47 sec) 
Heartbeat CPU  0 instructions:  268000000 cycles:  350329527 heartbeat IPC: 0.66755 cumulative IPC: 0.61938 (Simulation time: 0 hr 12 min 50 sec) 
Heartbeat CPU  0 instructions:  269000002 cycles:  351837592 heartbeat IPC: 0.66310 cumulative IPC: 0.61962 (Simulation time: 0 hr 12 min 53 sec) 
Heartbeat CPU  0 instructions:  270000001 cycles:  353375796 heartbeat IPC: 0.65011 cumulative IPC: 0.61979 (Simulation time: 0 hr 12 min 56 sec) 
Heartbeat CPU  0 instructions:  271000000 cycles:  354870861 heartbeat IPC: 0.66887 cumulative IPC: 0.62006 (Simulation time: 0 hr 12 min 59 sec) 
Heartbeat CPU  0 instructions:  272000000 cycles:  356400007 heartbeat IPC: 0.65396 cumulative IPC: 0.62024 (Simulation time: 0 hr 13 min 2 sec) 
Heartbeat CPU  0 instructions:  273000001 cycles:  357931022 heartbeat IPC: 0.65316 cumulative IPC: 0.62042 (Simulation time: 0 hr 13 min 5 sec) 
Heartbeat CPU  0 instructions:  274000000 cycles:  359440402 heartbeat IPC: 0.66252 cumulative IPC: 0.62065 (Simulation time: 0 hr 13 min 8 sec) 
Heartbeat CPU  0 instructions:  275000002 cycles:  360973967 heartbeat IPC: 0.65208 cumulative IPC: 0.62082 (Simulation time: 0 hr 13 min 11 sec) 
Heartbeat CPU  0 instructions:  276000000 cycles:  362493162 heartbeat IPC: 0.65824 cumulative IPC: 0.62102 (Simulation time: 0 hr 13 min 14 sec) 
Heartbeat CPU  0 instructions:  277000001 cycles:  364015409 heartbeat IPC: 0.65692 cumulative IPC: 0.62121 (Simulation time: 0 hr 13 min 17 sec) 
Heartbeat CPU  0 instructions:  278000003 cycles:  365544621 heartbeat IPC: 0.65393 cumulative IPC: 0.62139 (Simulation time: 0 hr 13 min 20 sec) 
Heartbeat CPU  0 instructions:  279000002 cycles:  367051437 heartbeat IPC: 0.66365 cumulative IPC: 0.62161 (Simulation time: 0 hr 13 min 23 sec) 
Heartbeat CPU  0 instructions:  280000000 cycles:  368562095 heartbeat IPC: 0.66196 cumulative IPC: 0.62182 (Simulation time: 0 hr 13 min 26 sec) 
Heartbeat CPU  0 instructions:  281000001 cycles:  370103070 heartbeat IPC: 0.64894 cumulative IPC: 0.62196 (Simulation time: 0 hr 13 min 29 sec) 
Heartbeat CPU  0 instructions:  282000002 cycles:  371604580 heartbeat IPC: 0.66600 cumulative IPC: 0.62219 (Simulation time: 0 hr 13 min 32 sec) 
Heartbeat CPU  0 instructions:  283000001 cycles:  373119044 heartbeat IPC: 0.66030 cumulative IPC: 0.62239 (Simulation time: 0 hr 13 min 35 sec) 
Heartbeat CPU  0 instructions:  284000000 cycles:  374649065 heartbeat IPC: 0.65359 cumulative IPC: 0.62255 (Simulation time: 0 hr 13 min 38 sec) 
Heartbeat CPU  0 instructions:  285000001 cycles:  376154868 heartbeat IPC: 0.66410 cumulative IPC: 0.62276 (Simulation time: 0 hr 13 min 41 sec) 
Heartbeat CPU  0 instructions:  286000002 cycles:  377668781 heartbeat IPC: 0.66054 cumulative IPC: 0.62295 (Simulation time: 0 hr 13 min 44 sec) 
Heartbeat CPU  0 instructions:  287000000 cycles:  379198927 heartbeat IPC: 0.65353 cumulative IPC: 0.62311 (Simulation time: 0 hr 13 min 47 sec) 
Heartbeat CPU  0 instructions:  288000000 cycles:  380712165 heartbeat IPC: 0.66083 cumulative IPC: 0.62330 (Simulation time: 0 hr 13 min 50 sec) 
Heartbeat CPU  0 instructions:  289000003 cycles:  382222745 heartbeat IPC: 0.66200 cumulative IPC: 0.62349 (Simulation time: 0 hr 13 min 53 sec) 
Heartbeat CPU  0 instructions:  290000000 cycles:  383747502 heartbeat IPC: 0.65584 cumulative IPC: 0.62365 (Simulation time: 0 hr 13 min 56 sec) 
Heartbeat CPU  0 instructions:  291000000 cycles:  385255074 heartbeat IPC: 0.66332 cumulative IPC: 0.62385 (Simulation time: 0 hr 13 min 59 sec) 
Heartbeat CPU  0 instructions:  292000000 cycles:  386807914 heartbeat IPC: 0.64398 cumulative IPC: 0.62395 (Simulation time: 0 hr 14 min 2 sec) 
Heartbeat CPU  0 instructions:  293000003 cycles:  388334176 heartbeat IPC: 0.65520 cumulative IPC: 0.62410 (Simulation time: 0 hr 14 min 5 sec) 
Heartbeat CPU  0 instructions:  294000000 cycles:  389837566 heartbeat IPC: 0.66516 cumulative IPC: 0.62430 (Simulation time: 0 hr 14 min 8 sec) 
Heartbeat CPU  0 instructions:  295000001 cycles:  391379206 heartbeat IPC: 0.64866 cumulative IPC: 0.62442 (Simulation time: 0 hr 14 min 11 sec) 
Heartbeat CPU  0 instructions:  296000000 cycles:  392890454 heartbeat IPC: 0.66170 cumulative IPC: 0.62460 (Simulation time: 0 hr 14 min 14 sec) 
Heartbeat CPU  0 instructions:  297000003 cycles:  394403717 heartbeat IPC: 0.66083 cumulative IPC: 0.62477 (Simulation time: 0 hr 14 min 17 sec) 
Heartbeat CPU  0 instructions:  298000000 cycles:  395937647 heartbeat IPC: 0.65192 cumulative IPC: 0.62491 (Simulation time: 0 hr 14 min 20 sec) 
Heartbeat CPU  0 instructions:  299000001 cycles:  397461127 heartbeat IPC: 0.65639 cumulative IPC: 0.62506 (Simulation time: 0 hr 14 min 23 sec) 
Heartbeat CPU  0 instructions:  300000000 cycles:  398978844 heartbeat IPC: 0.65888 cumulative IPC: 0.62522 (Simulation time: 0 hr 14 min 26 sec) 
Heartbeat CPU  0 instructions:  301000002 cycles:  400522746 heartbeat IPC: 0.64771 cumulative IPC: 0.62532 (Simulation time: 0 hr 14 min 29 sec) 
Heartbeat CPU  0 instructions:  302000001 cycles:  402057511 heartbeat IPC: 0.65156 cumulative IPC: 0.62545 (Simulation time: 0 hr 14 min 32 sec) 
Heartbeat CPU  0 instructions:  303000002 cycles:  403571049 heartbeat IPC: 0.66070 cumulative IPC: 0.62561 (Simulation time: 0 hr 14 min 35 sec) 
Heartbeat CPU  0 instructions:  304000000 cycles:  405104733 heartbeat IPC: 0.65202 cumulative IPC: 0.62574 (Simulation time: 0 hr 14 min 38 sec) 
Heartbeat CPU  0 instructions:  305000001 cycles:  406591737 heartbeat IPC: 0.67249 cumulative IPC: 0.62595 (Simulation time: 0 hr 14 min 41 sec) 
Heartbeat CPU  0 instructions:  306000000 cycles:  408118386 heartbeat IPC: 0.65503 cumulative IPC: 0.62609 (Simulation time: 0 hr 14 min 44 sec) 
Heartbeat CPU  0 instructions:  307000000 cycles:  409656123 heartbeat IPC: 0.65031 cumulative IPC: 0.62620 (Simulation time: 0 hr 14 min 47 sec) 
Heartbeat CPU  0 instructions:  308000000 cycles:  411296254 heartbeat IPC: 0.60971 cumulative IPC: 0.62612 (Simulation time: 0 hr 14 min 50 sec) 
Heartbeat CPU  0 instructions:  309000002 cycles:  412691764 heartbeat IPC: 0.71659 cumulative IPC: 0.62650 (Simulation time: 0 hr 14 min 53 sec) 
Heartbeat CPU  0 instructions:  310000000 cycles:  413922552 heartbeat IPC: 0.81249 cumulative IPC: 0.62718 (Simulation time: 0 hr 14 min 56 sec) 
Heartbeat CPU  0 instructions:  311000002 cycles:  415689275 heartbeat IPC: 0.56602 cumulative IPC: 0.62686 (Simulation time: 0 hr 14 min 59 sec) 
Heartbeat CPU  0 instructions:  312000000 cycles:  417283299 heartbeat IPC: 0.62734 cumulative IPC: 0.62686 (Simulation time: 0 hr 15 min 2 sec) 
Heartbeat CPU  0 instructions:  313000003 cycles:  418802229 heartbeat IPC: 0.65836 cumulative IPC: 0.62700 (Simulation time: 0 hr 15 min 5 sec) 
Heartbeat CPU  0 instructions:  314000000 cycles:  420390563 heartbeat IPC: 0.62959 cumulative IPC: 0.62701 (Simulation time: 0 hr 15 min 8 sec) 
Heartbeat CPU  0 instructions:  315000003 cycles:  421913285 heartbeat IPC: 0.65672 cumulative IPC: 0.62714 (Simulation time: 0 hr 15 min 11 sec) 
Heartbeat CPU  0 instructions:  316000000 cycles:  423440158 heartbeat IPC: 0.65493 cumulative IPC: 0.62727 (Simulation time: 0 hr 15 min 14 sec) 
Heartbeat CPU  0 instructions:  317000001 cycles:  425003686 heartbeat IPC: 0.63958 cumulative IPC: 0.62732 (Simulation time: 0 hr 15 min 17 sec) 
Heartbeat CPU  0 instructions:  318000000 cycles:  426539717 heartbeat IPC: 0.65103 cumulative IPC: 0.62743 (Simulation time: 0 hr 15 min 20 sec) 
Heartbeat CPU  0 instructions:  319000000 cycles:  428108434 heartbeat IPC: 0.63746 cumulative IPC: 0.62747 (Simulation time: 0 hr 15 min 23 sec) 
Heartbeat CPU  0 instructions:  320000000 cycles:  429627940 heartbeat IPC: 0.65811 cumulative IPC: 0.62761 (Simulation time: 0 hr 15 min 26 sec) 
Heartbeat CPU  0 instructions:  321000000 cycles:  431141412 heartbeat IPC: 0.66073 cumulative IPC: 0.62775 (Simulation time: 0 hr 15 min 29 sec) 
Heartbeat CPU  0 instructions:  322000003 cycles:  432674410 heartbeat IPC: 0.65232 cumulative IPC: 0.62786 (Simulation time: 0 hr 15 min 32 sec) 
Heartbeat CPU  0 instructions:  323000003 cycles:  434190359 heartbeat IPC: 0.65965 cumulative IPC: 0.62799 (Simulation time: 0 hr 15 min 35 sec) 
Heartbeat CPU  0 instructions:  324000000 cycles:  435750348 heartbeat IPC: 0.64103 cumulative IPC: 0.62805 (Simulation time: 0 hr 15 min 38 sec) 
Heartbeat CPU  0 instructions:  325000003 cycles:  437257319 heartbeat IPC: 0.66358 cumulative IPC: 0.62820 (Simulation time: 0 hr 15 min 41 sec) 
Heartbeat CPU  0 instructions:  326000000 cycles:  438803390 heartbeat IPC: 0.64680 cumulative IPC: 0.62828 (Simulation time: 0 hr 15 min 44 sec) 
Heartbeat CPU  0 instructions:  327000001 cycles:  440369899 heartbeat IPC: 0.63836 cumulative IPC: 0.62832 (Simulation time: 0 hr 15 min 47 sec) 
Heartbeat CPU  0 instructions:  328000000 cycles:  441875720 heartbeat IPC: 0.66409 cumulative IPC: 0.62847 (Simulation time: 0 hr 15 min 50 sec) 
Heartbeat CPU  0 instructions:  329000002 cycles:  443421816 heartbeat IPC: 0.64679 cumulative IPC: 0.62855 (Simulation time: 0 hr 15 min 53 sec) 
Heartbeat CPU  0 instructions:  330000003 cycles:  444934901 heartbeat IPC: 0.66090 cumulative IPC: 0.62868 (Simulation time: 0 hr 15 min 56 sec) 
Heartbeat CPU  0 instructions:  331000003 cycles:  446460832 heartbeat IPC: 0.65534 cumulative IPC: 0.62879 (Simulation time: 0 hr 16 min 0 sec) 
Heartbeat CPU  0 instructions:  332000000 cycles:  447986707 heartbeat IPC: 0.65536 cumulative IPC: 0.62890 (Simulation time: 0 hr 16 min 3 sec) 
Heartbeat CPU  0 instructions:  333000003 cycles:  449498338 heartbeat IPC: 0.66154 cumulative IPC: 0.62904 (Simulation time: 0 hr 16 min 6 sec) 
Heartbeat CPU  0 instructions:  334000000 cycles:  451037863 heartbeat IPC: 0.64955 cumulative IPC: 0.62912 (Simulation time: 0 hr 16 min 9 sec) 
Heartbeat CPU  0 instructions:  335000002 cycles:  452564087 heartbeat IPC: 0.65521 cumulative IPC: 0.62923 (Simulation time: 0 hr 16 min 12 sec) 
Heartbeat CPU  0 instructions:  336000000 cycles:  454110036 heartbeat IPC: 0.64685 cumulative IPC: 0.62930 (Simulation time: 0 hr 16 min 15 sec) 
Heartbeat CPU  0 instructions:  337000000 cycles:  455634323 heartbeat IPC: 0.65604 cumulative IPC: 0.62941 (Simulation time: 0 hr 16 min 18 sec) 
Heartbeat CPU  0 instructions:  338000002 cycles:  457149041 heartbeat IPC: 0.66019 cumulative IPC: 0.62953 (Simulation time: 0 hr 16 min 21 sec) 
Heartbeat CPU  0 instructions:  339000001 cycles:  458709668 heartbeat IPC: 0.64077 cumulative IPC: 0.62958 (Simulation time: 0 hr 16 min 24 sec) 
Heartbeat CPU  0 instructions:  340000000 cycles:  460208146 heartbeat IPC: 0.66734 cumulative IPC: 0.62973 (Simulation time: 0 hr 16 min 27 sec) 
Heartbeat CPU  0 instructions:  341000002 cycles:  461731622 heartbeat IPC: 0.65639 cumulative IPC: 0.62983 (Simulation time: 0 hr 16 min 30 sec) 
Heartbeat CPU  0 instructions:  342000003 cycles:  463267573 heartbeat IPC: 0.65106 cumulative IPC: 0.62992 (Simulation time: 0 hr 16 min 33 sec) 
Heartbeat CPU  0 instructions:  343000000 cycles:  464783776 heartbeat IPC: 0.65954 cumulative IPC: 0.63003 (Simulation time: 0 hr 16 min 36 sec) 
Heartbeat CPU  0 instructions:  344000000 cycles:  466327476 heartbeat IPC: 0.64779 cumulative IPC: 0.63010 (Simulation time: 0 hr 16 min 39 sec) 
Heartbeat CPU  0 instructions:  345000003 cycles:  467846467 heartbeat IPC: 0.65833 cumulative IPC: 0.63021 (Simulation time: 0 hr 16 min 42 sec) 
Heartbeat CPU  0 instructions:  346000000 cycles:  469364732 heartbeat IPC: 0.65864 cumulative IPC: 0.63032 (Simulation time: 0 hr 16 min 45 sec) 
Heartbeat CPU  0 instructions:  347000003 cycles:  470895905 heartbeat IPC: 0.65310 cumulative IPC: 0.63041 (Simulation time: 0 hr 16 min 48 sec) 
Heartbeat CPU  0 instructions:  348000000 cycles:  472394080 heartbeat IPC: 0.66748 cumulative IPC: 0.63055 (Simulation time: 0 hr 16 min 51 sec) 
Heartbeat CPU  0 instructions:  349000000 cycles:  473930961 heartbeat IPC: 0.65067 cumulative IPC: 0.63063 (Simulation time: 0 hr 16 min 54 sec) 
Heartbeat CPU  0 instructions:  350000003 cycles:  475438428 heartbeat IPC: 0.66337 cumulative IPC: 0.63076 (Simulation time: 0 hr 16 min 57 sec) 
Heartbeat CPU  0 instructions:  351000001 cycles:  476983868 heartbeat IPC: 0.64706 cumulative IPC: 0.63082 (Simulation time: 0 hr 17 min 0 sec) 
Heartbeat CPU  0 instructions:  352000000 cycles:  478532732 heartbeat IPC: 0.64563 cumulative IPC: 0.63088 (Simulation time: 0 hr 17 min 3 sec) 
Heartbeat CPU  0 instructions:  353000003 cycles:  480051462 heartbeat IPC: 0.65845 cumulative IPC: 0.63098 (Simulation time: 0 hr 17 min 6 sec) 
Heartbeat CPU  0 instructions:  354000000 cycles:  481587395 heartbeat IPC: 0.65107 cumulative IPC: 0.63106 (Simulation time: 0 hr 17 min 9 sec) 
Heartbeat CPU  0 instructions:  355000000 cycles:  483109089 heartbeat IPC: 0.65716 cumulative IPC: 0.63116 (Simulation time: 0 hr 17 min 12 sec) 
Heartbeat CPU  0 instructions:  356000000 cycles:  484630923 heartbeat IPC: 0.65710 cumulative IPC: 0.63126 (Simulation time: 0 hr 17 min 15 sec) 
Heartbeat CPU  0 instructions:  357000002 cycles:  486191912 heartbeat IPC: 0.64062 cumulative IPC: 0.63129 (Simulation time: 0 hr 17 min 18 sec) 
Heartbeat CPU  0 instructions:  358000003 cycles:  487709946 heartbeat IPC: 0.65875 cumulative IPC: 0.63139 (Simulation time: 0 hr 17 min 21 sec) 
Heartbeat CPU  0 instructions:  359000000 cycles:  489258679 heartbeat IPC: 0.64569 cumulative IPC: 0.63145 (Simulation time: 0 hr 17 min 24 sec) 
Heartbeat CPU  0 instructions:  360000000 cycles:  490798680 heartbeat IPC: 0.64935 cumulative IPC: 0.63151 (Simulation time: 0 hr 17 min 27 sec) 
Heartbeat CPU  0 instructions:  361000002 cycles:  492321754 heartbeat IPC: 0.65657 cumulative IPC: 0.63161 (Simulation time: 0 hr 17 min 30 sec) 
Heartbeat CPU  0 instructions:  362000003 cycles:  493847159 heartbeat IPC: 0.65556 cumulative IPC: 0.63169 (Simulation time: 0 hr 17 min 33 sec) 
Heartbeat CPU  0 instructions:  363000003 cycles:  495361484 heartbeat IPC: 0.66036 cumulative IPC: 0.63180 (Simulation time: 0 hr 17 min 36 sec) 
Heartbeat CPU  0 instructions:  364000000 cycles:  496896909 heartbeat IPC: 0.65128 cumulative IPC: 0.63187 (Simulation time: 0 hr 17 min 39 sec) 
Heartbeat CPU  0 instructions:  365000003 cycles:  498405915 heartbeat IPC: 0.66269 cumulative IPC: 0.63198 (Simulation time: 0 hr 17 min 43 sec) 
Heartbeat CPU  0 instructions:  366000000 cycles:  499949345 heartbeat IPC: 0.64791 cumulative IPC: 0.63204 (Simulation time: 0 hr 17 min 46 sec) 
Heartbeat CPU  0 instructions:  367000001 cycles:  501487035 heartbeat IPC: 0.65033 cumulative IPC: 0.63211 (Simulation time: 0 hr 17 min 49 sec) 
Heartbeat CPU  0 instructions:  368000000 cycles:  502990306 heartbeat IPC: 0.66522 cumulative IPC: 0.63222 (Simulation time: 0 hr 17 min 52 sec) 
Heartbeat CPU  0 instructions:  369000003 cycles:  504523129 heartbeat IPC: 0.65239 cumulative IPC: 0.63230 (Simulation time: 0 hr 17 min 55 sec) 
Heartbeat CPU  0 instructions:  370000000 cycles:  506051085 heartbeat IPC: 0.65447 cumulative IPC: 0.63238 (Simulation time: 0 hr 17 min 58 sec) 
Heartbeat CPU  0 instructions:  371000000 cycles:  507590689 heartbeat IPC: 0.64952 cumulative IPC: 0.63244 (Simulation time: 0 hr 18 min 1 sec) 
Heartbeat CPU  0 instructions:  372000000 cycles:  509145876 heartbeat IPC: 0.64301 cumulative IPC: 0.63248 (Simulation time: 0 hr 18 min 4 sec) 
Heartbeat CPU  0 instructions:  373000000 cycles:  510646138 heartbeat IPC: 0.66655 cumulative IPC: 0.63259 (Simulation time: 0 hr 18 min 7 sec) 
Heartbeat CPU  0 instructions:  374000003 cycles:  512195930 heartbeat IPC: 0.64525 cumulative IPC: 0.63264 (Simulation time: 0 hr 18 min 10 sec) 
Heartbeat CPU  0 instructions:  375000002 cycles:  513694073 heartbeat IPC: 0.66749 cumulative IPC: 0.63276 (Simulation time: 0 hr 18 min 13 sec) 
Heartbeat CPU  0 instructions:  376000000 cycles:  515230377 heartbeat IPC: 0.65091 cumulative IPC: 0.63282 (Simulation time: 0 hr 18 min 16 sec) 
Heartbeat CPU  0 instructions:  377000003 cycles:  516724536 heartbeat IPC: 0.66927 cumulative IPC: 0.63295 (Simulation time: 0 hr 18 min 19 sec) 
Heartbeat CPU  0 instructions:  378000000 cycles:  518234934 heartbeat IPC: 0.66208 cumulative IPC: 0.63305 (Simulation time: 0 hr 18 min 22 sec) 
Heartbeat CPU  0 instructions:  379000001 cycles:  519765052 heartbeat IPC: 0.65355 cumulative IPC: 0.63312 (Simulation time: 0 hr 18 min 25 sec) 
Heartbeat CPU  0 instructions:  380000000 cycles:  521265724 heartbeat IPC: 0.66637 cumulative IPC: 0.63323 (Simulation time: 0 hr 18 min 28 sec) 
Heartbeat CPU  0 instructions:  381000002 cycles:  522788049 heartbeat IPC: 0.65689 cumulative IPC: 0.63331 (Simulation time: 0 hr 18 min 31 sec) 
Heartbeat CPU  0 instructions:  382000003 cycles:  524314997 heartbeat IPC: 0.65490 cumulative IPC: 0.63339 (Simulation time: 0 hr 18 min 34 sec) 
Heartbeat CPU  0 instructions:  383000000 cycles:  525838302 heartbeat IPC: 0.65647 cumulative IPC: 0.63347 (Simulation time: 0 hr 18 min 37 sec) 
Heartbeat CPU  0 instructions:  384000000 cycles:  527395645 heartbeat IPC: 0.64212 cumulative IPC: 0.63350 (Simulation time: 0 hr 18 min 40 sec) 
Heartbeat CPU  0 instructions:  385000003 cycles:  528888408 heartbeat IPC: 0.66990 cumulative IPC: 0.63362 (Simulation time: 0 hr 18 min 43 sec) 
Heartbeat CPU  0 instructions:  386000000 cycles:  530430864 heartbeat IPC: 0.64831 cumulative IPC: 0.63367 (Simulation time: 0 hr 18 min 46 sec) 
Heartbeat CPU  0 instructions:  387000002 cycles:  531928940 heartbeat IPC: 0.66752 cumulative IPC: 0.63378 (Simulation time: 0 hr 18 min 49 sec) 
Heartbeat CPU  0 instructions:  388000000 cycles:  533477717 heartbeat IPC: 0.64567 cumulative IPC: 0.63382 (Simulation time: 0 hr 18 min 52 sec) 
Heartbeat CPU  0 instructions:  389000000 cycles:  535008921 heartbeat IPC: 0.65308 cumulative IPC: 0.63388 (Simulation time: 0 hr 18 min 55 sec) 
Heartbeat CPU  0 instructions:  390000000 cycles:  536514916 heartbeat IPC: 0.66401 cumulative IPC: 0.63398 (Simulation time: 0 hr 18 min 58 sec) 
Heartbeat CPU  0 instructions:  391000003 cycles:  538039814 heartbeat IPC: 0.65578 cumulative IPC: 0.63406 (Simulation time: 0 hr 19 min 1 sec) 
Heartbeat CPU  0 instructions:  392000000 cycles:  539531829 heartbeat IPC: 0.67023 cumulative IPC: 0.63417 (Simulation time: 0 hr 19 min 4 sec) 
Heartbeat CPU  0 instructions:  393000000 cycles:  541050863 heartbeat IPC: 0.65831 cumulative IPC: 0.63425 (Simulation time: 0 hr 19 min 7 sec) 
Heartbeat CPU  0 instructions:  394000000 cycles:  542598005 heartbeat IPC: 0.64635 cumulative IPC: 0.63429 (Simulation time: 0 hr 19 min 10 sec) 
Heartbeat CPU  0 instructions:  395000000 cycles:  544089926 heartbeat IPC: 0.67028 cumulative IPC: 0.63441 (Simulation time: 0 hr 19 min 13 sec) 
Heartbeat CPU  0 instructions:  396000000 cycles:  545638716 heartbeat IPC: 0.64567 cumulative IPC: 0.63445 (Simulation time: 0 hr 19 min 16 sec) 
Heartbeat CPU  0 instructions:  397000000 cycles:  547158005 heartbeat IPC: 0.65820 cumulative IPC: 0.63452 (Simulation time: 0 hr 19 min 19 sec) 
Heartbeat CPU  0 instructions:  398000001 cycles:  548680461 heartbeat IPC: 0.65683 cumulative IPC: 0.63460 (Simulation time: 0 hr 19 min 22 sec) 
Heartbeat CPU  0 instructions:  399000002 cycles:  550232708 heartbeat IPC: 0.64423 cumulative IPC: 0.63463 (Simulation time: 0 hr 19 min 25 sec) 
Heartbeat CPU  0 instructions:  400000000 cycles:  551743867 heartbeat IPC: 0.66174 cumulative IPC: 0.63471 (Simulation time: 0 hr 19 min 28 sec) 
Heartbeat CPU  0 instructions:  401000002 cycles:  553292715 heartbeat IPC: 0.64564 cumulative IPC: 0.63475 (Simulation time: 0 hr 19 min 31 sec) 
Heartbeat CPU  0 instructions:  402000003 cycles:  554791740 heartbeat IPC: 0.66710 cumulative IPC: 0.63485 (Simulation time: 0 hr 19 min 34 sec) 
Heartbeat CPU  0 instructions:  403000000 cycles:  556334099 heartbeat IPC: 0.64836 cumulative IPC: 0.63489 (Simulation time: 0 hr 19 min 37 sec) 
Heartbeat CPU  0 instructions:  404000000 cycles:  557877577 heartbeat IPC: 0.64789 cumulative IPC: 0.63494 (Simulation time: 0 hr 19 min 40 sec) 
Heartbeat CPU  0 instructions:  405000003 cycles:  559389559 heartbeat IPC: 0.66139 cumulative IPC: 0.63502 (Simulation time: 0 hr 19 min 43 sec) 
Heartbeat CPU  0 instructions:  406000000 cycles:  560910340 heartbeat IPC: 0.65755 cumulative IPC: 0.63509 (Simulation time: 0 hr 19 min 46 sec) 
Heartbeat CPU  0 instructions:  407000001 cycles:  562419653 heartbeat IPC: 0.66255 cumulative IPC: 0.63518 (Simulation time: 0 hr 19 min 49 sec) 
Heartbeat CPU  0 instructions:  408000000 cycles:  563929468 heartbeat IPC: 0.66233 cumulative IPC: 0.63526 (Simulation time: 0 hr 19 min 53 sec) 
Heartbeat CPU  0 instructions:  409000002 cycles:  565488167 heartbeat IPC: 0.64156 cumulative IPC: 0.63528 (Simulation time: 0 hr 19 min 56 sec) 
Heartbeat CPU  0 instructions:  410000000 cycles:  566989876 heartbeat IPC: 0.66591 cumulative IPC: 0.63538 (Simulation time: 0 hr 19 min 59 sec) 
Heartbeat CPU  0 instructions:  411000001 cycles:  568530080 heartbeat IPC: 0.64927 cumulative IPC: 0.63542 (Simulation time: 0 hr 20 min 2 sec) 
Heartbeat CPU  0 instructions:  412000000 cycles:  570032139 heartbeat IPC: 0.66575 cumulative IPC: 0.63551 (Simulation time: 0 hr 20 min 5 sec) 
Heartbeat CPU  0 instructions:  413000002 cycles:  571583828 heartbeat IPC: 0.64446 cumulative IPC: 0.63554 (Simulation time: 0 hr 20 min 8 sec) 
Heartbeat CPU  0 instructions:  414000001 cycles:  573111554 heartbeat IPC: 0.65457 cumulative IPC: 0.63560 (Simulation time: 0 hr 20 min 11 sec) 
Heartbeat CPU  0 instructions:  415000002 cycles:  574644666 heartbeat IPC: 0.65227 cumulative IPC: 0.63565 (Simulation time: 0 hr 20 min 14 sec) 
Heartbeat CPU  0 instructions:  416000000 cycles:  576179271 heartbeat IPC: 0.65163 cumulative IPC: 0.63570 (Simulation time: 0 hr 20 min 17 sec) 
Heartbeat CPU  0 instructions:  417000003 cycles:  577681786 heartbeat IPC: 0.66555 cumulative IPC: 0.63579 (Simulation time: 0 hr 20 min 20 sec) 
Heartbeat CPU  0 instructions:  418000000 cycles:  579207081 heartbeat IPC: 0.65561 cumulative IPC: 0.63585 (Simulation time: 0 hr 20 min 23 sec) 
Heartbeat CPU  0 instructions:  419000001 cycles:  580727838 heartbeat IPC: 0.65757 cumulative IPC: 0.63592 (Simulation time: 0 hr 20 min 26 sec) 
Heartbeat CPU  0 instructions:  420000000 cycles:  582226887 heartbeat IPC: 0.66709 cumulative IPC: 0.63601 (Simulation time: 0 hr 20 min 29 sec) 
Heartbeat CPU  0 instructions:  421000000 cycles:  583758342 heartbeat IPC: 0.65297 cumulative IPC: 0.63606 (Simulation time: 0 hr 20 min 32 sec) 
Heartbeat CPU  0 instructions:  422000001 cycles:  585253022 heartbeat IPC: 0.66904 cumulative IPC: 0.63616 (Simulation time: 0 hr 20 min 35 sec) 
Heartbeat CPU  0 instructions:  423000001 cycles:  586777421 heartbeat IPC: 0.65600 cumulative IPC: 0.63622 (Simulation time: 0 hr 20 min 38 sec) 
Heartbeat CPU  0 instructions:  424000000 cycles:  588295568 heartbeat IPC: 0.65870 cumulative IPC: 0.63628 (Simulation time: 0 hr 20 min 41 sec) 
Heartbeat CPU  0 instructions:  425000001 cycles:  589813078 heartbeat IPC: 0.65897 cumulative IPC: 0.63635 (Simulation time: 0 hr 20 min 44 sec) 
Heartbeat CPU  0 instructions:  426000002 cycles:  591356814 heartbeat IPC: 0.64778 cumulative IPC: 0.63639 (Simulation time: 0 hr 20 min 47 sec) 
Heartbeat CPU  0 instructions:  427000000 cycles:  592880306 heartbeat IPC: 0.65639 cumulative IPC: 0.63645 (Simulation time: 0 hr 20 min 50 sec) 
Heartbeat CPU  0 instructions:  428000000 cycles:  594407731 heartbeat IPC: 0.65470 cumulative IPC: 0.63650 (Simulation time: 0 hr 20 min 53 sec) 
Heartbeat CPU  0 instructions:  429000000 cycles:  595920019 heartbeat IPC: 0.66125 cumulative IPC: 0.63657 (Simulation time: 0 hr 20 min 56 sec) 
Heartbeat CPU  0 instructions:  430000000 cycles:  597435211 heartbeat IPC: 0.65998 cumulative IPC: 0.63664 (Simulation time: 0 hr 20 min 59 sec) 
Heartbeat CPU  0 instructions:  431000000 cycles:  599180604 heartbeat IPC: 0.57294 cumulative IPC: 0.63643 (Simulation time: 0 hr 21 min 2 sec) 
Heartbeat CPU  0 instructions:  432000000 cycles:  600886847 heartbeat IPC: 0.58608 cumulative IPC: 0.63626 (Simulation time: 0 hr 21 min 5 sec) 
Heartbeat CPU  0 instructions:  433000001 cycles:  602431899 heartbeat IPC: 0.64723 cumulative IPC: 0.63630 (Simulation time: 0 hr 21 min 8 sec) 
Heartbeat CPU  0 instructions:  434000000 cycles:  603976521 heartbeat IPC: 0.64741 cumulative IPC: 0.63633 (Simulation time: 0 hr 21 min 11 sec) 
Heartbeat CPU  0 instructions:  435000003 cycles:  605488357 heartbeat IPC: 0.66145 cumulative IPC: 0.63640 (Simulation time: 0 hr 21 min 14 sec) 
Heartbeat CPU  0 instructions:  436000000 cycles:  607030424 heartbeat IPC: 0.64848 cumulative IPC: 0.63644 (Simulation time: 0 hr 21 min 17 sec) 
Heartbeat CPU  0 instructions:  437000002 cycles:  608552880 heartbeat IPC: 0.65683 cumulative IPC: 0.63649 (Simulation time: 0 hr 21 min 20 sec) 
Heartbeat CPU  0 instructions:  438000001 cycles:  610079939 heartbeat IPC: 0.65485 cumulative IPC: 0.63655 (Simulation time: 0 hr 21 min 23 sec) 
Heartbeat CPU  0 instructions:  439000000 cycles:  611593693 heartbeat IPC: 0.66061 cumulative IPC: 0.63662 (Simulation time: 0 hr 21 min 27 sec) 
Heartbeat CPU  0 instructions:  440000000 cycles:  613139372 heartbeat IPC: 0.64696 cumulative IPC: 0.63664 (Simulation time: 0 hr 21 min 30 sec) 
Heartbeat CPU  0 instructions:  441000001 cycles:  614685947 heartbeat IPC: 0.64659 cumulative IPC: 0.63667 (Simulation time: 0 hr 21 min 33 sec) 
Heartbeat CPU  0 instructions:  442000000 cycles:  616192089 heartbeat IPC: 0.66395 cumulative IPC: 0.63675 (Simulation time: 0 hr 21 min 36 sec) 
Heartbeat CPU  0 instructions:  443000000 cycles:  617706844 heartbeat IPC: 0.66017 cumulative IPC: 0.63682 (Simulation time: 0 hr 21 min 39 sec) 
Heartbeat CPU  0 instructions:  444000000 cycles:  619258944 heartbeat IPC: 0.64429 cumulative IPC: 0.63684 (Simulation time: 0 hr 21 min 42 sec) 
Heartbeat CPU  0 instructions:  445000002 cycles:  620795601 heartbeat IPC: 0.65076 cumulative IPC: 0.63688 (Simulation time: 0 hr 21 min 45 sec) 
Heartbeat CPU  0 instructions:  446000001 cycles:  622319791 heartbeat IPC: 0.65609 cumulative IPC: 0.63693 (Simulation time: 0 hr 21 min 48 sec) 
Heartbeat CPU  0 instructions:  447000003 cycles:  623830408 heartbeat IPC: 0.66198 cumulative IPC: 0.63700 (Simulation time: 0 hr 21 min 51 sec) 
Heartbeat CPU  0 instructions:  448000000 cycles:  625395515 heartbeat IPC: 0.63893 cumulative IPC: 0.63701 (Simulation time: 0 hr 21 min 54 sec) 
Heartbeat CPU  0 instructions:  449000000 cycles:  626942839 heartbeat IPC: 0.64628 cumulative IPC: 0.63703 (Simulation time: 0 hr 21 min 57 sec) 
Heartbeat CPU  0 instructions:  450000003 cycles:  628440889 heartbeat IPC: 0.66754 cumulative IPC: 0.63712 (Simulation time: 0 hr 22 min 0 sec) 
Heartbeat CPU  0 instructions:  451000000 cycles:  629980722 heartbeat IPC: 0.64942 cumulative IPC: 0.63715 (Simulation time: 0 hr 22 min 3 sec) 
Heartbeat CPU  0 instructions:  452000000 cycles:  631527482 heartbeat IPC: 0.64651 cumulative IPC: 0.63718 (Simulation time: 0 hr 22 min 6 sec) 
Heartbeat CPU  0 instructions:  453000001 cycles:  633051585 heartbeat IPC: 0.65612 cumulative IPC: 0.63723 (Simulation time: 0 hr 22 min 9 sec) 
Heartbeat CPU  0 instructions:  454000000 cycles:  634566184 heartbeat IPC: 0.66024 cumulative IPC: 0.63729 (Simulation time: 0 hr 22 min 12 sec) 
Heartbeat CPU  0 instructions:  455000000 cycles:  636086893 heartbeat IPC: 0.65759 cumulative IPC: 0.63735 (Simulation time: 0 hr 22 min 15 sec) 
Heartbeat CPU  0 instructions:  456000000 cycles:  637627619 heartbeat IPC: 0.64904 cumulative IPC: 0.63738 (Simulation time: 0 hr 22 min 18 sec) 
Heartbeat CPU  0 instructions:  457000002 cycles:  639133854 heartbeat IPC: 0.66391 cumulative IPC: 0.63745 (Simulation time: 0 hr 22 min 21 sec) 
Heartbeat CPU  0 instructions:  458000003 cycles:  640694909 heartbeat IPC: 0.64059 cumulative IPC: 0.63746 (Simulation time: 0 hr 22 min 24 sec) 
Heartbeat CPU  0 instructions:  459000001 cycles:  642201115 heartbeat IPC: 0.66392 cumulative IPC: 0.63753 (Simulation time: 0 hr 22 min 27 sec) 
Heartbeat CPU  0 instructions:  460000000 cycles:  643714049 heartbeat IPC: 0.66097 cumulative IPC: 0.63759 (Simulation time: 0 hr 22 min 30 sec) 
Heartbeat CPU  0 instructions:  461000002 cycles:  645242960 heartbeat IPC: 0.65406 cumulative IPC: 0.63764 (Simulation time: 0 hr 22 min 33 sec) 
Heartbeat CPU  0 instructions:  462000003 cycles:  646744223 heartbeat IPC: 0.66611 cumulative IPC: 0.63771 (Simulation time: 0 hr 22 min 36 sec) 
Heartbeat CPU  0 instructions:  463000002 cycles:  648293874 heartbeat IPC: 0.64531 cumulative IPC: 0.63773 (Simulation time: 0 hr 22 min 39 sec) 
Heartbeat CPU  0 instructions:  464000000 cycles:  649799378 heartbeat IPC: 0.66423 cumulative IPC: 0.63780 (Simulation time: 0 hr 22 min 42 sec) 
Heartbeat CPU  0 instructions:  465000001 cycles:  651323512 heartbeat IPC: 0.65611 cumulative IPC: 0.63785 (Simulation time: 0 hr 22 min 45 sec) 
Heartbeat CPU  0 instructions:  466000000 cycles:  652897441 heartbeat IPC: 0.63535 cumulative IPC: 0.63784 (Simulation time: 0 hr 22 min 49 sec) 
Heartbeat CPU  0 instructions:  467000001 cycles:  654432392 heartbeat IPC: 0.65149 cumulative IPC: 0.63788 (Simulation time: 0 hr 22 min 52 sec) 
Heartbeat CPU  0 instructions:  468000000 cycles:  655955795 heartbeat IPC: 0.65642 cumulative IPC: 0.63793 (Simulation time: 0 hr 22 min 55 sec) 
Heartbeat CPU  0 instructions:  469000002 cycles:  657462637 heartbeat IPC: 0.66364 cumulative IPC: 0.63800 (Simulation time: 0 hr 22 min 58 sec) 
Heartbeat CPU  0 instructions:  470000003 cycles:  659002660 heartbeat IPC: 0.64934 cumulative IPC: 0.63803 (Simulation time: 0 hr 23 min 1 sec) 
Heartbeat CPU  0 instructions:  471000002 cycles:  660550757 heartbeat IPC: 0.64595 cumulative IPC: 0.63805 (Simulation time: 0 hr 23 min 4 sec) 
Heartbeat CPU  0 instructions:  472000000 cycles:  662036212 heartbeat IPC: 0.67319 cumulative IPC: 0.63814 (Simulation time: 0 hr 23 min 7 sec) 
Heartbeat CPU  0 instructions:  473000001 cycles:  663567005 heartbeat IPC: 0.65326 cumulative IPC: 0.63818 (Simulation time: 0 hr 23 min 10 sec) 
Heartbeat CPU  0 instructions:  474000000 cycles:  665126132 heartbeat IPC: 0.64138 cumulative IPC: 0.63819 (Simulation time: 0 hr 23 min 13 sec) 
Heartbeat CPU  0 instructions:  475000001 cycles:  666657712 heartbeat IPC: 0.65292 cumulative IPC: 0.63822 (Simulation time: 0 hr 23 min 16 sec) 
Heartbeat CPU  0 instructions:  476000000 cycles:  668203937 heartbeat IPC: 0.64674 cumulative IPC: 0.63825 (Simulation time: 0 hr 23 min 19 sec) 
Heartbeat CPU  0 instructions:  477000003 cycles:  669707506 heartbeat IPC: 0.66509 cumulative IPC: 0.63831 (Simulation time: 0 hr 23 min 22 sec) 
Heartbeat CPU  0 instructions:  478000002 cycles:  671283312 heartbeat IPC: 0.63460 cumulative IPC: 0.63830 (Simulation time: 0 hr 23 min 25 sec) 
Heartbeat CPU  0 instructions:  479000003 cycles:  672785005 heartbeat IPC: 0.66592 cumulative IPC: 0.63837 (Simulation time: 0 hr 23 min 28 sec) 
Heartbeat CPU  0 instructions:  480000000 cycles:  674298092 heartbeat IPC: 0.66090 cumulative IPC: 0.63843 (Simulation time: 0 hr 23 min 31 sec) 
Heartbeat CPU  0 instructions:  481000000 cycles:  675823655 heartbeat IPC: 0.65550 cumulative IPC: 0.63848 (Simulation time: 0 hr 23 min 34 sec) 
Heartbeat CPU  0 instructions:  482000003 cycles:  677313642 heartbeat IPC: 0.67115 cumulative IPC: 0.63856 (Simulation time: 0 hr 23 min 37 sec) 
Heartbeat CPU  0 instructions:  483000000 cycles:  678844739 heartbeat IPC: 0.65312 cumulative IPC: 0.63859 (Simulation time: 0 hr 23 min 40 sec) 
Heartbeat CPU  0 instructions:  484000000 cycles:  680369828 heartbeat IPC: 0.65570 cumulative IPC: 0.63864 (Simulation time: 0 hr 23 min 43 sec) 
Heartbeat CPU  0 instructions:  485000001 cycles:  681932036 heartbeat IPC: 0.64012 cumulative IPC: 0.63864 (Simulation time: 0 hr 23 min 46 sec) 
Heartbeat CPU  0 instructions:  486000000 cycles:  683463597 heartbeat IPC: 0.65293 cumulative IPC: 0.63868 (Simulation time: 0 hr 23 min 49 sec) 
Heartbeat CPU  0 instructions:  487000001 cycles:  684959253 heartbeat IPC: 0.66860 cumulative IPC: 0.63875 (Simulation time: 0 hr 23 min 52 sec) 
Heartbeat CPU  0 instructions:  488000000 cycles:  686516978 heartbeat IPC: 0.64196 cumulative IPC: 0.63876 (Simulation time: 0 hr 23 min 55 sec) 
Heartbeat CPU  0 instructions:  489000002 cycles:  688045648 heartbeat IPC: 0.65416 cumulative IPC: 0.63880 (Simulation time: 0 hr 23 min 58 sec) 
Heartbeat CPU  0 instructions:  490000001 cycles:  689563725 heartbeat IPC: 0.65873 cumulative IPC: 0.63885 (Simulation time: 0 hr 24 min 1 sec) 
Heartbeat CPU  0 instructions:  491000001 cycles:  691096366 heartbeat IPC: 0.65247 cumulative IPC: 0.63888 (Simulation time: 0 hr 24 min 4 sec) 
Heartbeat CPU  0 instructions:  492000000 cycles:  692616248 heartbeat IPC: 0.65795 cumulative IPC: 0.63893 (Simulation time: 0 hr 24 min 7 sec) 
Heartbeat CPU  0 instructions:  493000003 cycles:  694168694 heartbeat IPC: 0.64415 cumulative IPC: 0.63894 (Simulation time: 0 hr 24 min 10 sec) 
Heartbeat CPU  0 instructions:  494000001 cycles:  695688426 heartbeat IPC: 0.65801 cumulative IPC: 0.63899 (Simulation time: 0 hr 24 min 13 sec) 
Heartbeat CPU  0 instructions:  495000000 cycles:  697213111 heartbeat IPC: 0.65587 cumulative IPC: 0.63903 (Simulation time: 0 hr 24 min 17 sec) 
Heartbeat CPU  0 instructions:  496000000 cycles:  698788287 heartbeat IPC: 0.63485 cumulative IPC: 0.63902 (Simulation time: 0 hr 24 min 20 sec) 
Heartbeat CPU  0 instructions:  497000002 cycles:  700303426 heartbeat IPC: 0.66001 cumulative IPC: 0.63907 (Simulation time: 0 hr 24 min 23 sec) 
Heartbeat CPU  0 instructions:  498000000 cycles:  701829616 heartbeat IPC: 0.65523 cumulative IPC: 0.63911 (Simulation time: 0 hr 24 min 26 sec) 
Heartbeat CPU  0 instructions:  499000001 cycles:  703342793 heartbeat IPC: 0.66086 cumulative IPC: 0.63916 (Simulation time: 0 hr 24 min 29 sec) 
Heartbeat CPU  0 instructions:  500000000 cycles:  704897285 heartbeat IPC: 0.64330 cumulative IPC: 0.63917 (Simulation time: 0 hr 24 min 32 sec) 
Heartbeat CPU  0 instructions:  501000000 cycles:  706421674 heartbeat IPC: 0.65600 cumulative IPC: 0.63922 (Simulation time: 0 hr 24 min 35 sec) 
Heartbeat CPU  0 instructions:  502000003 cycles:  707918734 heartbeat IPC: 0.66798 cumulative IPC: 0.63928 (Simulation time: 0 hr 24 min 38 sec) 
Heartbeat CPU  0 instructions:  503000003 cycles:  709464874 heartbeat IPC: 0.64677 cumulative IPC: 0.63930 (Simulation time: 0 hr 24 min 41 sec) 
Heartbeat CPU  0 instructions:  504000000 cycles:  711015214 heartbeat IPC: 0.64502 cumulative IPC: 0.63932 (Simulation time: 0 hr 24 min 44 sec) 
Heartbeat CPU  0 instructions:  505000001 cycles:  712538049 heartbeat IPC: 0.65667 cumulative IPC: 0.63936 (Simulation time: 0 hr 24 min 47 sec) 
Heartbeat CPU  0 instructions:  506000001 cycles:  714062656 heartbeat IPC: 0.65591 cumulative IPC: 0.63940 (Simulation time: 0 hr 24 min 50 sec) 
Heartbeat CPU  0 instructions:  507000003 cycles:  715565239 heartbeat IPC: 0.66552 cumulative IPC: 0.63946 (Simulation time: 0 hr 24 min 53 sec) 
Heartbeat CPU  0 instructions:  508000000 cycles:  717091701 heartbeat IPC: 0.65511 cumulative IPC: 0.63950 (Simulation time: 0 hr 24 min 56 sec) 
Heartbeat CPU  0 instructions:  509000000 cycles:  718606691 heartbeat IPC: 0.66007 cumulative IPC: 0.63955 (Simulation time: 0 hr 24 min 59 sec) 
Heartbeat CPU  0 instructions:  510000002 cycles:  720151025 heartbeat IPC: 0.64753 cumulative IPC: 0.63956 (Simulation time: 0 hr 25 min 2 sec) 
Heartbeat CPU  0 instructions:  511000003 cycles:  721706849 heartbeat IPC: 0.64275 cumulative IPC: 0.63957 (Simulation time: 0 hr 25 min 5 sec) 
Heartbeat CPU  0 instructions:  512000000 cycles:  723235687 heartbeat IPC: 0.65409 cumulative IPC: 0.63961 (Simulation time: 0 hr 25 min 8 sec) 
Heartbeat CPU  0 instructions:  513000001 cycles:  724766993 heartbeat IPC: 0.65304 cumulative IPC: 0.63964 (Simulation time: 0 hr 25 min 11 sec) 
Heartbeat CPU  0 instructions:  514000003 cycles:  726285515 heartbeat IPC: 0.65854 cumulative IPC: 0.63968 (Simulation time: 0 hr 25 min 14 sec) 
Heartbeat CPU  0 instructions:  515000002 cycles:  727843357 heartbeat IPC: 0.64191 cumulative IPC: 0.63969 (Simulation time: 0 hr 25 min 17 sec) 
Heartbeat CPU  0 instructions:  516000000 cycles:  729370781 heartbeat IPC: 0.65470 cumulative IPC: 0.63972 (Simulation time: 0 hr 25 min 20 sec) 
Heartbeat CPU  0 instructions:  517000001 cycles:  730881924 heartbeat IPC: 0.66175 cumulative IPC: 0.63977 (Simulation time: 0 hr 25 min 23 sec) 
Heartbeat CPU  0 instructions:  518000000 cycles:  732475927 heartbeat IPC: 0.62735 cumulative IPC: 0.63974 (Simulation time: 0 hr 25 min 26 sec) 
Heartbeat CPU  0 instructions:  519000003 cycles:  734014871 heartbeat IPC: 0.64980 cumulative IPC: 0.63977 (Simulation time: 0 hr 25 min 29 sec) 
Heartbeat CPU  0 instructions:  520000000 cycles:  735530024 heartbeat IPC: 0.66000 cumulative IPC: 0.63981 (Simulation time: 0 hr 25 min 32 sec) 
Heartbeat CPU  0 instructions:  521000000 cycles:  737096273 heartbeat IPC: 0.63847 cumulative IPC: 0.63981 (Simulation time: 0 hr 25 min 35 sec) 
Heartbeat CPU  0 instructions:  522000003 cycles:  738654125 heartbeat IPC: 0.64191 cumulative IPC: 0.63982 (Simulation time: 0 hr 25 min 38 sec) 
Heartbeat CPU  0 instructions:  523000002 cycles:  740218233 heartbeat IPC: 0.63934 cumulative IPC: 0.63982 (Simulation time: 0 hr 25 min 42 sec) 
Heartbeat CPU  0 instructions:  524000000 cycles:  741722259 heartbeat IPC: 0.66488 cumulative IPC: 0.63987 (Simulation time: 0 hr 25 min 45 sec) 
Heartbeat CPU  0 instructions:  525000001 cycles:  743241395 heartbeat IPC: 0.65827 cumulative IPC: 0.63991 (Simulation time: 0 hr 25 min 48 sec) 
Heartbeat CPU  0 instructions:  526000000 cycles:  744816051 heartbeat IPC: 0.63506 cumulative IPC: 0.63990 (Simulation time: 0 hr 25 min 51 sec) 
Heartbeat CPU  0 instructions:  527000002 cycles:  746320785 heartbeat IPC: 0.66457 cumulative IPC: 0.63996 (Simulation time: 0 hr 25 min 54 sec) 
Heartbeat CPU  0 instructions:  528000000 cycles:  747860073 heartbeat IPC: 0.64965 cumulative IPC: 0.63998 (Simulation time: 0 hr 25 min 57 sec) 
Heartbeat CPU  0 instructions:  529000002 cycles:  749375247 heartbeat IPC: 0.65999 cumulative IPC: 0.64003 (Simulation time: 0 hr 26 min 0 sec) 
Heartbeat CPU  0 instructions:  530000002 cycles:  750904772 heartbeat IPC: 0.65380 cumulative IPC: 0.64006 (Simulation time: 0 hr 26 min 3 sec) 
Heartbeat CPU  0 instructions:  531000002 cycles:  752437741 heartbeat IPC: 0.65233 cumulative IPC: 0.64009 (Simulation time: 0 hr 26 min 6 sec) 
Heartbeat CPU  0 instructions:  532000000 cycles:  753957126 heartbeat IPC: 0.65816 cumulative IPC: 0.64013 (Simulation time: 0 hr 26 min 9 sec) 
Heartbeat CPU  0 instructions:  533000000 cycles:  755485190 heartbeat IPC: 0.65442 cumulative IPC: 0.64016 (Simulation time: 0 hr 26 min 12 sec) 
Heartbeat CPU  0 instructions:  534000003 cycles:  757005771 heartbeat IPC: 0.65765 cumulative IPC: 0.64020 (Simulation time: 0 hr 26 min 15 sec) 
Heartbeat CPU  0 instructions:  535000003 cycles:  758534497 heartbeat IPC: 0.65414 cumulative IPC: 0.64023 (Simulation time: 0 hr 26 min 18 sec) 
Heartbeat CPU  0 instructions:  536000000 cycles:  760063960 heartbeat IPC: 0.65382 cumulative IPC: 0.64026 (Simulation time: 0 hr 26 min 21 sec) 
Heartbeat CPU  0 instructions:  537000001 cycles:  761594860 heartbeat IPC: 0.65321 cumulative IPC: 0.64029 (Simulation time: 0 hr 26 min 24 sec) 
Heartbeat CPU  0 instructions:  538000000 cycles:  763137560 heartbeat IPC: 0.64821 cumulative IPC: 0.64031 (Simulation time: 0 hr 26 min 27 sec) 
Heartbeat CPU  0 instructions:  539000000 cycles:  764745629 heartbeat IPC: 0.62186 cumulative IPC: 0.64026 (Simulation time: 0 hr 26 min 30 sec) 
Heartbeat CPU  0 instructions:  540000000 cycles:  766124607 heartbeat IPC: 0.72517 cumulative IPC: 0.64043 (Simulation time: 0 hr 26 min 33 sec) 
Heartbeat CPU  0 instructions:  541000002 cycles:  767249206 heartbeat IPC: 0.88921 cumulative IPC: 0.64084 (Simulation time: 0 hr 26 min 36 sec) 
Heartbeat CPU  0 instructions:  542000000 cycles:  768377432 heartbeat IPC: 0.88635 cumulative IPC: 0.64124 (Simulation time: 0 hr 26 min 38 sec) 
Heartbeat CPU  0 instructions:  543000002 cycles:  770270105 heartbeat IPC: 0.52835 cumulative IPC: 0.64093 (Simulation time: 0 hr 26 min 42 sec) 
Heartbeat CPU  0 instructions:  544000000 cycles:  771793802 heartbeat IPC: 0.65630 cumulative IPC: 0.64097 (Simulation time: 0 hr 26 min 45 sec) 
Heartbeat CPU  0 instructions:  545000002 cycles:  773292894 heartbeat IPC: 0.66707 cumulative IPC: 0.64102 (Simulation time: 0 hr 26 min 48 sec) 
Heartbeat CPU  0 instructions:  546000002 cycles:  774798055 heartbeat IPC: 0.66438 cumulative IPC: 0.64107 (Simulation time: 0 hr 26 min 51 sec) 
Heartbeat CPU  0 instructions:  547000000 cycles:  776296805 heartbeat IPC: 0.66722 cumulative IPC: 0.64113 (Simulation time: 0 hr 26 min 54 sec) 
Heartbeat CPU  0 instructions:  548000000 cycles:  777797464 heartbeat IPC: 0.66637 cumulative IPC: 0.64118 (Simulation time: 0 hr 26 min 57 sec) 
Heartbeat CPU  0 instructions:  549000002 cycles:  779324561 heartbeat IPC: 0.65484 cumulative IPC: 0.64121 (Simulation time: 0 hr 27 min 0 sec) 
Heartbeat CPU  0 instructions:  550000000 cycles:  780822958 heartbeat IPC: 0.66738 cumulative IPC: 0.64127 (Simulation time: 0 hr 27 min 3 sec) 
Heartbeat CPU  0 instructions:  551000000 cycles:  782317435 heartbeat IPC: 0.66913 cumulative IPC: 0.64133 (Simulation time: 0 hr 27 min 6 sec) 
Heartbeat CPU  0 instructions:  552000000 cycles:  783846985 heartbeat IPC: 0.65379 cumulative IPC: 0.64136 (Simulation time: 0 hr 27 min 9 sec) 
Heartbeat CPU  0 instructions:  553000001 cycles:  785352116 heartbeat IPC: 0.66439 cumulative IPC: 0.64140 (Simulation time: 0 hr 27 min 12 sec) 
Heartbeat CPU  0 instructions:  554000002 cycles:  786854061 heartbeat IPC: 0.66580 cumulative IPC: 0.64146 (Simulation time: 0 hr 27 min 15 sec) 
Heartbeat CPU  0 instructions:  555000000 cycles:  788353124 heartbeat IPC: 0.66708 cumulative IPC: 0.64151 (Simulation time: 0 hr 27 min 18 sec) 
Heartbeat CPU  0 instructions:  556000000 cycles:  789842459 heartbeat IPC: 0.67144 cumulative IPC: 0.64157 (Simulation time: 0 hr 27 min 21 sec) 
Heartbeat CPU  0 instructions:  557000001 cycles:  791356510 heartbeat IPC: 0.66048 cumulative IPC: 0.64161 (Simulation time: 0 hr 27 min 24 sec) 
Heartbeat CPU  0 instructions:  558000003 cycles:  792866491 heartbeat IPC: 0.66226 cumulative IPC: 0.64166 (Simulation time: 0 hr 27 min 27 sec) 
Heartbeat CPU  0 instructions:  559000000 cycles:  794352607 heartbeat IPC: 0.67289 cumulative IPC: 0.64172 (Simulation time: 0 hr 27 min 30 sec) 
Heartbeat CPU  0 instructions:  560000000 cycles:  795842144 heartbeat IPC: 0.67135 cumulative IPC: 0.64178 (Simulation time: 0 hr 27 min 33 sec) 
Heartbeat CPU  0 instructions:  561000000 cycles:  797344804 heartbeat IPC: 0.66549 cumulative IPC: 0.64183 (Simulation time: 0 hr 27 min 36 sec) 
Heartbeat CPU  0 instructions:  562000003 cycles:  798823937 heartbeat IPC: 0.67607 cumulative IPC: 0.64190 (Simulation time: 0 hr 27 min 39 sec) 
Heartbeat CPU  0 instructions:  563000003 cycles:  800315481 heartbeat IPC: 0.67045 cumulative IPC: 0.64196 (Simulation time: 0 hr 27 min 42 sec) 
Heartbeat CPU  0 instructions:  564000000 cycles:  801803228 heartbeat IPC: 0.67216 cumulative IPC: 0.64202 (Simulation time: 0 hr 27 min 45 sec) 
Heartbeat CPU  0 instructions:  565000001 cycles:  803284140 heartbeat IPC: 0.67526 cumulative IPC: 0.64209 (Simulation time: 0 hr 27 min 48 sec) 
Heartbeat CPU  0 instructions:  566000001 cycles:  804782987 heartbeat IPC: 0.66718 cumulative IPC: 0.64214 (Simulation time: 0 hr 27 min 51 sec) 
Heartbeat CPU  0 instructions:  567000000 cycles:  806283725 heartbeat IPC: 0.66634 cumulative IPC: 0.64219 (Simulation time: 0 hr 27 min 54 sec) 
Heartbeat CPU  0 instructions:  568000000 cycles:  807781342 heartbeat IPC: 0.66773 cumulative IPC: 0.64225 (Simulation time: 0 hr 27 min 57 sec) 
Heartbeat CPU  0 instructions:  569000003 cycles:  809272020 heartbeat IPC: 0.67084 cumulative IPC: 0.64231 (Simulation time: 0 hr 28 min 0 sec) 
Heartbeat CPU  0 instructions:  570000000 cycles:  810793770 heartbeat IPC: 0.65714 cumulative IPC: 0.64234 (Simulation time: 0 hr 28 min 3 sec) 
Heartbeat CPU  0 instructions:  571000000 cycles:  812289665 heartbeat IPC: 0.66850 cumulative IPC: 0.64239 (Simulation time: 0 hr 28 min 6 sec) 
Heartbeat CPU  0 instructions:  572000000 cycles:  813776622 heartbeat IPC: 0.67251 cumulative IPC: 0.64245 (Simulation time: 0 hr 28 min 9 sec) 
Heartbeat CPU  0 instructions:  573000000 cycles:  815269356 heartbeat IPC: 0.66991 cumulative IPC: 0.64251 (Simulation time: 0 hr 28 min 12 sec) 
Heartbeat CPU  0 instructions:  574000001 cycles:  816762190 heartbeat IPC: 0.66987 cumulative IPC: 0.64256 (Simulation time: 0 hr 28 min 15 sec) 
Heartbeat CPU  0 instructions:  575000001 cycles:  818269562 heartbeat IPC: 0.66341 cumulative IPC: 0.64260 (Simulation time: 0 hr 28 min 18 sec) 
Heartbeat CPU  0 instructions:  576000000 cycles:  819761866 heartbeat IPC: 0.67010 cumulative IPC: 0.64266 (Simulation time: 0 hr 28 min 21 sec) 
Heartbeat CPU  0 instructions:  577000001 cycles:  821255762 heartbeat IPC: 0.66939 cumulative IPC: 0.64271 (Simulation time: 0 hr 28 min 24 sec) 
Heartbeat CPU  0 instructions:  578000001 cycles:  822759562 heartbeat IPC: 0.66498 cumulative IPC: 0.64276 (Simulation time: 0 hr 28 min 27 sec) 
Heartbeat CPU  0 instructions:  579000000 cycles:  824299296 heartbeat IPC: 0.64946 cumulative IPC: 0.64277 (Simulation time: 0 hr 28 min 30 sec) 
Heartbeat CPU  0 instructions:  580000000 cycles:  825805526 heartbeat IPC: 0.66391 cumulative IPC: 0.64281 (Simulation time: 0 hr 28 min 33 sec) 
Heartbeat CPU  0 instructions:  581000002 cycles:  827295662 heartbeat IPC: 0.67108 cumulative IPC: 0.64287 (Simulation time: 0 hr 28 min 36 sec) 
Heartbeat CPU  0 instructions:  582000000 cycles:  828799595 heartbeat IPC: 0.66492 cumulative IPC: 0.64292 (Simulation time: 0 hr 28 min 39 sec) 
Heartbeat CPU  0 instructions:  583000000 cycles:  830289231 heartbeat IPC: 0.67130 cumulative IPC: 0.64297 (Simulation time: 0 hr 28 min 42 sec) 
Heartbeat CPU  0 instructions:  584000000 cycles:  831773579 heartbeat IPC: 0.67370 cumulative IPC: 0.64303 (Simulation time: 0 hr 28 min 45 sec) 
Heartbeat CPU  0 instructions:  585000003 cycles:  833270768 heartbeat IPC: 0.66792 cumulative IPC: 0.64308 (Simulation time: 0 hr 28 min 48 sec) 
Heartbeat CPU  0 instructions:  586000000 cycles:  834754662 heartbeat IPC: 0.67390 cumulative IPC: 0.64314 (Simulation time: 0 hr 28 min 51 sec) 
Heartbeat CPU  0 instructions:  587000001 cycles:  836241901 heartbeat IPC: 0.67239 cumulative IPC: 0.64320 (Simulation time: 0 hr 28 min 54 sec) 
Heartbeat CPU  0 instructions:  588000000 cycles:  837778821 heartbeat IPC: 0.65065 cumulative IPC: 0.64321 (Simulation time: 0 hr 28 min 57 sec) 
Heartbeat CPU  0 instructions:  589000000 cycles:  839270534 heartbeat IPC: 0.67037 cumulative IPC: 0.64327 (Simulation time: 0 hr 29 min 0 sec) 
Heartbeat CPU  0 instructions:  590000003 cycles:  840780554 heartbeat IPC: 0.66224 cumulative IPC: 0.64331 (Simulation time: 0 hr 29 min 3 sec) 
Heartbeat CPU  0 instructions:  591000002 cycles:  842286126 heartbeat IPC: 0.66420 cumulative IPC: 0.64335 (Simulation time: 0 hr 29 min 6 sec) 
Heartbeat CPU  0 instructions:  592000000 cycles:  843783623 heartbeat IPC: 0.66778 cumulative IPC: 0.64339 (Simulation time: 0 hr 29 min 9 sec) 
Heartbeat CPU  0 instructions:  593000001 cycles:  845289897 heartbeat IPC: 0.66389 cumulative IPC: 0.64344 (Simulation time: 0 hr 29 min 12 sec) 
Heartbeat CPU  0 instructions:  594000000 cycles:  846787122 heartbeat IPC: 0.66790 cumulative IPC: 0.64348 (Simulation time: 0 hr 29 min 15 sec) 
Heartbeat CPU  0 instructions:  595000000 cycles:  848272250 heartbeat IPC: 0.67334 cumulative IPC: 0.64354 (Simulation time: 0 hr 29 min 18 sec) 
Heartbeat CPU  0 instructions:  596000000 cycles:  849767437 heartbeat IPC: 0.66881 cumulative IPC: 0.64359 (Simulation time: 0 hr 29 min 21 sec) 
Heartbeat CPU  0 instructions:  597000003 cycles:  851279078 heartbeat IPC: 0.66153 cumulative IPC: 0.64362 (Simulation time: 0 hr 29 min 24 sec) 
Heartbeat CPU  0 instructions:  598000002 cycles:  852766207 heartbeat IPC: 0.67244 cumulative IPC: 0.64368 (Simulation time: 0 hr 29 min 27 sec) 
Heartbeat CPU  0 instructions:  599000003 cycles:  854262426 heartbeat IPC: 0.66835 cumulative IPC: 0.64373 (Simulation time: 0 hr 29 min 30 sec) 
Heartbeat CPU  0 instructions:  600000000 cycles:  855756745 heartbeat IPC: 0.66920 cumulative IPC: 0.64378 (Simulation time: 0 hr 29 min 33 sec) 
Finished CPU 0 instructions: 500000000 cycles: 776666983 cumulative IPC: 0.64378 (Simulation time: 0 hr 29 min 33 sec) 

ChampSim completed all CPUs

[ROI Statistics]
Core_0_instructions 500000000
Core_0_cycles 776666983
Core_0_IPC 0.64378

Core_0_branch_prediction_accuracy 99.58640
Core_0_branch_MPKI 0.02120
Core_0_average_ROB_occupancy_at_mispredict 244.44892

Core_0_L1D_total_access 288440667
Core_0_L1D_total_hit 284130326
Core_0_L1D_total_miss 4310341
Core_0_L1D_loads 257462183
Core_0_L1D_load_hit 253152742
Core_0_L1D_load_miss 4309441
Core_0_L1D_RFOs 30978484
Core_0_L1D_RFO_hit 30977584
Core_0_L1D_RFO_miss 900
Core_0_L1D_prefetches 0
Core_0_L1D_prefetch_hit 0
Core_0_L1D_prefetch_miss 0
Core_0_L1D_writebacks 0
Core_0_L1D_writeback_hit 0
Core_0_L1D_writeback_miss 0
Core_0_L1D_prefetch_requested 0
Core_0_L1D_prefetch_dropped 0
Core_0_L1D_prefetch_issued 0
Core_0_L1D_prefetch_filled 0
Core_0_L1D_prefetch_useful 0
Core_0_L1D_prefetch_useless 0
Core_0_L1D_prefetch_late 0
Core_0_L1D_average_miss_latency 43.95448

Core_0_L1D_rq_access 307606025
Core_0_L1D_rq_forward 0
Core_0_L1D_rq_merged 50088843
Core_0_L1D_rq_to_cache 257493695
Core_0_L1D_rq_full 0

Core_0_L1D_wq_access 30978597
Core_0_L1D_wq_forward 23487
Core_0_L1D_wq_merged 0
Core_0_L1D_wq_to_cache 30978597
Core_0_L1D_wq_full 0

Core_0_L1D_pq_access 0
Core_0_L1D_pq_forward 0
Core_0_L1D_pq_merged 0
Core_0_L1D_pq_to_cache 0
Core_0_L1D_pq_full 0

Core_0_L1D_acc_epochs 822535
Core_0_L1D_acc_level_0 822535
Core_0_L1D_acc_level_1 0
Core_0_L1D_acc_level_2 0
Core_0_L1D_acc_level_3 0
Core_0_L1D_acc_level_4 0
Core_0_L1D_acc_level_5 0
Core_0_L1D_acc_level_6 0
Core_0_L1D_acc_level_7 0
Core_0_L1D_acc_level_8 0
Core_0_L1D_acc_level_9 0

Core_0_L1I_total_access 133888315
Core_0_L1I_total_hit 133888138
Core_0_L1I_total_miss 177
Core_0_L1I_loads 133888315
Core_0_L1I_load_hit 133888138
Core_0_L1I_load_miss 177
Core_0_L1I_RFOs 0
Core_0_L1I_RFO_hit 0
Core_0_L1I_RFO_miss 0
Core_0_L1I_prefetches 0
Core_0_L1I_prefetch_hit 0
Core_0_L1I_prefetch_miss 0
Core_0_L1I_writebacks 0
Core_0_L1I_writeback_hit 0
Core_0_L1I_writeback_miss 0
Core_0_L1I_prefetch_requested 0
Core_0_L1I_prefetch_dropped 0
Core_0_L1I_prefetch_issued 0
Core_0_L1I_prefetch_filled 0
Core_0_L1I_prefetch_useful 0
Core_0_L1I_prefetch_useless 0
Core_0_L1I_prefetch_late 0
Core_0_L1I_average_miss_latency 286.88136

Core_0_L1I_rq_access 500000003
Core_0_L1I_rq_forward 0
Core_0_L1I_rq_merged 366111616
Core_0_L1I_rq_to_cache 133888387
Core_0_L1I_rq_full 0

Core_0_L1I_wq_access 0
Core_0_L1I_wq_forward 0
Core_0_L1I_wq_merged 0
Core_0_L1I_wq_to_cache 0
Core_0_L1I_wq_full 0

Core_0_L1I_pq_access 0
Core_0_L1I_pq_forward 0
Core_0_L1I_pq_merged 0
Core_0_L1I_pq_to_cache 0
Core_0_L1I_pq_full 0

Core_0_L1I_acc_epochs 822535
Core_0_L1I_acc_level_0 822535
Core_0_L1I_acc_level_1 0
Core_0_L1I_acc_level_2 0
Core_0_L1I_acc_level_3 0
Core_0_L1I_acc_level_4 0
Core_0_L1I_acc_level_5 0
Core_0_L1I_acc_level_6 0
Core_0_L1I_acc_level_7 0
Core_0_L1I_acc_level_8 0
Core_0_L1I_acc_level_9 0

Core_0_L2C_total_access 9430124
Core_0_L2C_total_hit 5798401
Core_0_L2C_total_miss 3631723
Core_0_L2C_loads 4308683
Core_0_L2C_load_hit 3686789
Core_0_L2C_load_miss 621894
Core_0_L2C_RFOs 778
Core_0_L2C_RFO_hit 755
Core_0_L2C_RFO_miss 23
Core_0_L2C_prefetches 3194624
Core_0_L2C_prefetch_hit 184935
Core_0_L2C_prefetch_miss 3009689
Core_0_L2C_writebacks 1926039
Core_0_L2C_writeback_hit 1925922
Core_0_L2C_writeback_miss 117
Core_0_L2C_prefetch_requested 4530204
Core_0_L2C_prefetch_dropped 0
Core_0_L2C_prefetch_issued 4530204
Core_0_L2C_prefetch_filled 3483106
Core_0_L2C_prefetch_useful 3288983
Core_0_L2C_prefetch_useless 193868
Core_0_L2C_prefetch_late 554
Core_0_L2C_average_miss_latency 472.42899

Core_0_L2C_rq_access 4310518
Core_0_L2C_rq_forward 0
Core_0_L2C_rq_merged 0
Core_0_L2C_rq_to_cache 4309461
Core_0_L2C_rq_full 0

Core_0_L2C_wq_access 1926039
Core_0_L2C_wq_forward 1057
Core_0_L2C_wq_merged 0
Core_0_L2C_wq_to_cache 1926039
Core_0_L2C_wq_full 0

Core_0_L2C_pq_access 4530204
Core_0_L2C_pq_forward 0
Core_0_L2C_pq_merged 0
Core_0_L2C_pq_to_cache 4530204
Core_0_L2C_pq_full 0

Core_0_L2C_acc_epochs 822535
Core_0_L2C_acc_level_0 455073
Core_0_L2C_acc_level_1 98092
Core_0_L2C_acc_level_2 63550
Core_0_L2C_acc_level_3 43868
Core_0_L2C_acc_level_4 26199
Core_0_L2C_acc_level_5 24527
Core_0_L2C_acc_level_6 14834
Core_0_L2C_acc_level_7 14609
Core_0_L2C_acc_level_8 9982
Core_0_L2C_acc_level_9 71801

Core_0_LLC_total_access 5961129
Core_0_LLC_total_hit 749933
Core_0_LLC_total_miss 5211196
Core_0_LLC_loads 621354
Core_0_LLC_load_hit 263114
Core_0_LLC_load_miss 358240
Core_0_LLC_RFOs 22
Core_0_LLC_RFO_hit 5
Core_0_LLC_RFO_miss 17
Core_0_LLC_prefetches 3429871
Core_0_LLC_prefetch_hit 140336
Core_0_LLC_prefetch_miss 3289535
Core_0_LLC_writebacks 1909882
Core_0_LLC_writeback_hit 346478
Core_0_LLC_writeback_miss 1563404
Core_0_LLC_prefetch_requested 0
Core_0_LLC_prefetch_dropped 0
Core_0_LLC_prefetch_issued 0
Core_0_LLC_prefetch_filled 4065708
Core_0_LLC_prefetch_useful 305510
Core_0_LLC_prefetch_useless 3758942
Core_0_LLC_prefetch_late 15
Core_0_LLC_average_miss_latency 330.35422

Core_0_LLC_rq_access 621376
Core_0_LLC_rq_forward 0
Core_0_LLC_rq_merged 0
Core_0_LLC_rq_to_cache 621376
Core_0_LLC_rq_full 0

Core_0_LLC_wq_access 1909882
Core_0_LLC_wq_forward 0
Core_0_LLC_wq_merged 0
Core_0_LLC_wq_to_cache 1909882
Core_0_LLC_wq_full 0

Core_0_LLC_pq_access 4330101
Core_0_LLC_pq_forward 0
Core_0_LLC_pq_merged 0
Core_0_LLC_pq_to_cache 4330101
Core_0_LLC_pq_full 0

Core_0_LLC_acc_epochs 835700
Core_0_LLC_acc_level_0 771109
Core_0_LLC_acc_level_1 30905
Core_0_LLC_acc_level_2 13840
Core_0_LLC_acc_level_3 6785
Core_0_LLC_acc_level_4 2036
Core_0_LLC_acc_level_5 4809
Core_0_LLC_acc_level_6 1201
Core_0_LLC_acc_level_7 1231
Core_0_LLC_acc_level_8 484
Core_0_LLC_acc_level_9 3300

Core_0_major_page_fault 0
Core_0_minor_page_fault 169020

[Bingo] PHT Access: 797032
[Bingo] PHT Hit PC+Addr: 11226
[Bingo] PHT Hit PC+Offs: 630432
[Bingo] PHT Miss: 155374
[Bingo] Prefetch PC+Addr: 0
[Bingo] Prefetch PC+Offs: 0
[Bingo] Useful PC+Addr: 0
[Bingo] Useful PC+Offs: 0
[Bingo] Useless PC+Addr: 0
[Bingo] Useless PC+Offs: 0
[Bingo] L1 Prefetch per Region: 0.00000
[Bingo] L2 Prefetch per Region: 6.76261
[Bingo] L3 Prefetch per Region: 1.36908
[Bingo] No Prefetch per Region: 23.86832
[Bingo] Number of Voters Mean: 13.21547
[Bingo] Number of Voters SD: 4.08116

Channel_0_RQ_row_buffer_hit 2435012
Channel_0_RQ_row_buffer_miss 1212780
Channel_0_WQ_row_buffer_hit 303439
Channel_0_WQ_row_buffer_miss 1585670
Channel_0_WQ_full 198
Channel_0_dbus_congested 4714962

avg_congested_cycle 23

DRAM_bw_pochs 3342800
DRAM_bw_level_0 2797066
DRAM_bw_level_1 130558
DRAM_bw_level_2 69482
DRAM_bw_level_3 345694
