*************************************************
   ChampSim Multicore Out-of-Order Simulator
   Last compiled: Dec 11 2024 17:59:53
*************************************************
parsing config file: /home/functionmain/桌面/Pythia/config/pythia.ini

trace_0 /home/functionmain/桌面/Pythia/traces/459.GemsFDTD-1418B.champsimtrace.xz
adding L2C_PREFETCHER: Scooby
Initialize SHIP state
warmup_instructions 100000000
simulation_instructions 500000000
champsim_seed 272
measure_ipc 0
measure_ipc_epoch 1000
measure_dram_bw 1
measure_dram_bw_epoch 256
measure_cache_acc 1
measure_cache_acc_epoch 1024
l1d_perfect 0
l2c_perfect 0
llc_perfect 0
l1d_semi_perfect 0
l2c_semi_perfect 0
llc_semi_perfect 0
semi_perfect_cache_page_buffer_size 64

num_cpus 1
cpu_freq 4000
dram_io_freq 600
page_size 4096
block_size 64
max_read_per_cycle 8
max_fill_per_cycle 1
dram_channels 1
log2_dram_channels 0
dram_ranks 1
dram_banks 8
dram_rows 65536
dram_columns 128
dram_row_size 8
dram_size 4096
dram_pages 1048576

fetch_width 6
decode_width 6
exec_width 4
lq_width 2
sq_width 2
retire_width 4
scheduler_size 128
branch_mispredict_penalty 20
rob_size 256
lq_size 72
sq_size 56
num_instr_destinations_sparc 4
num_instr_destinations 2
num_instr_sources 4

itlb_set 16
itlb_way 8
itlb_rq_size 16
itlb_wq_size 16
itlb_pq_size 0
itlb_mshr_size 8
itlb_latency 1

dtlb_set 16
dtlb_way 4
dtlb_rq_size 16
dtlb_wq_size 16
dtlb_pq_size 0
dtlb_mshr_size 8
dtlb_latency 1

stlb_set 128
stlb_way 12
stlb_rq_size 32
stlb_wq_size 32
stlb_pq_size 0
stlb_mshr_size 16
stlb_latency 8

l1i_size 32
l1i_set 64
l1i_way 8
l1i_rq_size 64
l1i_wq_size 64
l1i_pq_size 8
l1i_mshr_size 8
l1i_latency 1

l1d_size 32
l1d_set 64
l1d_way 8
l1d_rq_size 64
l1d_wq_size 64
l1d_pq_size 8
l1d_mshr_size 16
l1d_latency 4

l2c_size 256
l2c_set 512
l2c_way 8
l2c_rq_size 32
l2c_wq_size 32
l2c_pq_size 32
l2c_mshr_size 32
l2c_latency 10

llc_size 2048
llc_set 2048
llc_way 16
llc_rq_size 32
llc_wq_size 32
llc_pq_size 32
llc_mshr_size 64
llc_latency 20

dram_channel_width 8
dram_wq_size 64
dram_rq_size 64
tRP 15
tRCD 15
tCAS 12.5
dram_dbus_turn_around_time 30
dram_write_high_wm 56
dram_write_low_wm 48
min_dram_writes_per_switch 16
dram_mtps 600
dram_dbus_return_time 53

scooby_alpha 0.0065088
scooby_gamma 0.556301
scooby_epsilon 0.00182284
scooby_state_num_bits 10
scooby_max_states 1024
scooby_seed 200
scooby_policy EGreedy
scooby_learning_type SARSA
scooby_actions 1,3,4,5,10,11,12,22,23,30,32,-1,-3,-6,0,
scooby_max_actions 15
scooby_pt_size 256
scooby_st_size 64
scooby_max_pcs 5
scooby_max_offsets 5
scooby_max_deltas 5
scooby_reward_none -4
scooby_reward_incorrect -8
scooby_reward_correct_untimely 12
scooby_reward_correct_timely 20
scooby_brain_zero_init 0
scooby_enable_reward_all 0
scooby_enable_track_multiple 0
scooby_enable_reward_out_of_bounds 1
scooby_reward_out_of_bounds -12
scooby_state_type 1
scooby_state_hash_type 11
scooby_access_debug 0
scooby_print_access_debug 0
scooby_print_access_debug_pc deadbeef
scooby_print_access_debug_pc_count 0
scooby_print_trace 0
scooby_enable_state_action_stats 1
scooby_enable_reward_tracker_hit 0
scooby_reward_tracker_hit -2
scooby_enable_featurewise_engine 1
scooby_pref_degree 1
scooby_enable_dyn_degree 1
scooby_max_to_avg_q_thresholds 0.5,1,2,
scooby_dyn_degrees 1,2,4,4,
scooby_multi_deg_select_type 2
scooby_last_pref_offset_conf_thresholds 1,3,8,
scooby_dyn_degrees_type2 1,2,4,6,
scooby_action_tracker_size 2
scooby_high_bw_thresh 4
scooby_enable_hbw_reward 1
scooby_reward_hbw_correct_timely 20
scooby_reward_hbw_correct_untimely 12
scooby_reward_hbw_incorrect -14
scooby_reward_hbw_none -2
scooby_reward_hbw_out_of_bounds -12
scooby_reward_hbw_tracker_hit -2
scooby_last_pref_offset_conf_thresholds_hbw 1,3,8,
scooby_dyn_degrees_type2_hbw 1,2,4,6,

le_enable_trace 0
le_trace_interval 0
le_trace_file_name 
le_trace_state 0
le_enable_score_plot 0
le_plot_file_name 
le_plot_actions 
le_enable_action_trace 0
le_action_trace_interval 0
le_action_trace_name 
le_enable_action_plot 0

le_featurewise_active_features PC, PC_Delta
le_featurewise_num_tilings 3,3,
le_featurewise_num_tiles 128,128,
le_featurewise_hash_types 2,2,
le_featurewise_enable_tiling_offset 1,1,
le_featurewise_max_q_thresh 0.5
le_featurewise_enable_action_fallback 1
le_featurewise_feature_weights 1,1,
le_featurewise_enable_dynamic_weight 0
le_featurewise_weight_gradient 0.001
le_featurewise_disable_adjust_weight_all_features_align 1
le_featurewise_selective_update 0
le_featurewise_pooling_type 2
le_featurewise_enable_dyn_action_fallback 1
le_featurewise_bw_acc_check_level 1
le_featurewise_acc_thresh 2
le_featurewise_enable_trace 0
le_featurewise_trace_feature_type 0
le_featurewise_trace_feature 
le_featurewise_trace_interval 0
le_featurewise_trace_record_count 0
le_featurewise_trace_file_name 
le_featurewise_enable_score_plot 0
le_featurewise_plot_actions 
le_featurewise_plot_file_name 


Heartbeat CPU  0 instructions:    1000001 cycles:     778576 heartbeat IPC: 1.28440 cumulative IPC: 1.28440 (Simulation time: 0 hr 0 min 2 sec) 
Heartbeat CPU  0 instructions:    2000002 cycles:    1557279 heartbeat IPC: 1.28419 cumulative IPC: 1.28429 (Simulation time: 0 hr 0 min 5 sec) 
Heartbeat CPU  0 instructions:    3000003 cycles:    2335740 heartbeat IPC: 1.28459 cumulative IPC: 1.28439 (Simulation time: 0 hr 0 min 7 sec) 
Heartbeat CPU  0 instructions:    4000000 cycles:    3114360 heartbeat IPC: 1.28432 cumulative IPC: 1.28437 (Simulation time: 0 hr 0 min 10 sec) 
Heartbeat CPU  0 instructions:    5000001 cycles:    3893021 heartbeat IPC: 1.28426 cumulative IPC: 1.28435 (Simulation time: 0 hr 0 min 13 sec) 
Heartbeat CPU  0 instructions:    6000002 cycles:    4671596 heartbeat IPC: 1.28440 cumulative IPC: 1.28436 (Simulation time: 0 hr 0 min 15 sec) 
Heartbeat CPU  0 instructions:    7000003 cycles:    5450147 heartbeat IPC: 1.28444 cumulative IPC: 1.28437 (Simulation time: 0 hr 0 min 18 sec) 
Heartbeat CPU  0 instructions:    8000000 cycles:    6228404 heartbeat IPC: 1.28492 cumulative IPC: 1.28444 (Simulation time: 0 hr 0 min 20 sec) 
Heartbeat CPU  0 instructions:    9000002 cycles:    7007016 heartbeat IPC: 1.28434 cumulative IPC: 1.28443 (Simulation time: 0 hr 0 min 23 sec) 
Heartbeat CPU  0 instructions:   10000003 cycles:    7785549 heartbeat IPC: 1.28447 cumulative IPC: 1.28443 (Simulation time: 0 hr 0 min 25 sec) 
Heartbeat CPU  0 instructions:   11000000 cycles:    8563931 heartbeat IPC: 1.28471 cumulative IPC: 1.28446 (Simulation time: 0 hr 0 min 28 sec) 
Heartbeat CPU  0 instructions:   12000000 cycles:    9342300 heartbeat IPC: 1.28474 cumulative IPC: 1.28448 (Simulation time: 0 hr 0 min 31 sec) 
Heartbeat CPU  0 instructions:   13000003 cycles:   10121088 heartbeat IPC: 1.28405 cumulative IPC: 1.28445 (Simulation time: 0 hr 0 min 33 sec) 
Heartbeat CPU  0 instructions:   14000000 cycles:   10899591 heartbeat IPC: 1.28451 cumulative IPC: 1.28445 (Simulation time: 0 hr 0 min 36 sec) 
Heartbeat CPU  0 instructions:   15000001 cycles:   11678098 heartbeat IPC: 1.28451 cumulative IPC: 1.28446 (Simulation time: 0 hr 0 min 38 sec) 
Heartbeat CPU  0 instructions:   16000000 cycles:   12456829 heartbeat IPC: 1.28414 cumulative IPC: 1.28444 (Simulation time: 0 hr 0 min 41 sec) 
Heartbeat CPU  0 instructions:   17000003 cycles:   13235288 heartbeat IPC: 1.28459 cumulative IPC: 1.28445 (Simulation time: 0 hr 0 min 44 sec) 
Heartbeat CPU  0 instructions:   18000000 cycles:   14013629 heartbeat IPC: 1.28478 cumulative IPC: 1.28446 (Simulation time: 0 hr 0 min 46 sec) 
Heartbeat CPU  0 instructions:   19000003 cycles:   14792222 heartbeat IPC: 1.28437 cumulative IPC: 1.28446 (Simulation time: 0 hr 0 min 49 sec) 
Heartbeat CPU  0 instructions:   20000000 cycles:   15570709 heartbeat IPC: 1.28454 cumulative IPC: 1.28446 (Simulation time: 0 hr 0 min 51 sec) 
Heartbeat CPU  0 instructions:   21000003 cycles:   16349542 heartbeat IPC: 1.28398 cumulative IPC: 1.28444 (Simulation time: 0 hr 0 min 54 sec) 
Heartbeat CPU  0 instructions:   22000000 cycles:   17127974 heartbeat IPC: 1.28463 cumulative IPC: 1.28445 (Simulation time: 0 hr 0 min 56 sec) 
Heartbeat CPU  0 instructions:   23000003 cycles:   17906553 heartbeat IPC: 1.28439 cumulative IPC: 1.28445 (Simulation time: 0 hr 0 min 59 sec) 
Heartbeat CPU  0 instructions:   24000000 cycles:   18685299 heartbeat IPC: 1.28411 cumulative IPC: 1.28443 (Simulation time: 0 hr 1 min 2 sec) 
Heartbeat CPU  0 instructions:   25000001 cycles:   19463574 heartbeat IPC: 1.28489 cumulative IPC: 1.28445 (Simulation time: 0 hr 1 min 4 sec) 
Heartbeat CPU  0 instructions:   26000001 cycles:   20242015 heartbeat IPC: 1.28462 cumulative IPC: 1.28446 (Simulation time: 0 hr 1 min 7 sec) 
Heartbeat CPU  0 instructions:   27000002 cycles:   21020615 heartbeat IPC: 1.28436 cumulative IPC: 1.28445 (Simulation time: 0 hr 1 min 9 sec) 
Heartbeat CPU  0 instructions:   28000000 cycles:   21799112 heartbeat IPC: 1.28452 cumulative IPC: 1.28446 (Simulation time: 0 hr 1 min 12 sec) 
Heartbeat CPU  0 instructions:   29000001 cycles:   22577586 heartbeat IPC: 1.28457 cumulative IPC: 1.28446 (Simulation time: 0 hr 1 min 15 sec) 
Heartbeat CPU  0 instructions:   30000002 cycles:   23356273 heartbeat IPC: 1.28421 cumulative IPC: 1.28445 (Simulation time: 0 hr 1 min 17 sec) 
Heartbeat CPU  0 instructions:   31000003 cycles:   24134821 heartbeat IPC: 1.28444 cumulative IPC: 1.28445 (Simulation time: 0 hr 1 min 20 sec) 
Heartbeat CPU  0 instructions:   32000000 cycles:   24913302 heartbeat IPC: 1.28455 cumulative IPC: 1.28445 (Simulation time: 0 hr 1 min 22 sec) 
Heartbeat CPU  0 instructions:   33000003 cycles:   25691834 heartbeat IPC: 1.28447 cumulative IPC: 1.28445 (Simulation time: 0 hr 1 min 25 sec) 
Heartbeat CPU  0 instructions:   34000002 cycles:   26460987 heartbeat IPC: 1.30013 cumulative IPC: 1.28491 (Simulation time: 0 hr 1 min 28 sec) 
Heartbeat CPU  0 instructions:   35000001 cycles:   27243101 heartbeat IPC: 1.27858 cumulative IPC: 1.28473 (Simulation time: 0 hr 1 min 30 sec) 
Heartbeat CPU  0 instructions:   36000000 cycles:   28023745 heartbeat IPC: 1.28099 cumulative IPC: 1.28462 (Simulation time: 0 hr 1 min 33 sec) 
Heartbeat CPU  0 instructions:   37000000 cycles:   28804377 heartbeat IPC: 1.28101 cumulative IPC: 1.28453 (Simulation time: 0 hr 1 min 35 sec) 
Heartbeat CPU  0 instructions:   38000001 cycles:   29584717 heartbeat IPC: 1.28149 cumulative IPC: 1.28445 (Simulation time: 0 hr 1 min 38 sec) 
Heartbeat CPU  0 instructions:   39000003 cycles:   30365225 heartbeat IPC: 1.28122 cumulative IPC: 1.28436 (Simulation time: 0 hr 1 min 41 sec) 
Heartbeat CPU  0 instructions:   40000000 cycles:   31146096 heartbeat IPC: 1.28062 cumulative IPC: 1.28427 (Simulation time: 0 hr 1 min 43 sec) 
Heartbeat CPU  0 instructions:   41000000 cycles:   31927010 heartbeat IPC: 1.28055 cumulative IPC: 1.28418 (Simulation time: 0 hr 1 min 46 sec) 
Heartbeat CPU  0 instructions:   42000002 cycles:   32707431 heartbeat IPC: 1.28136 cumulative IPC: 1.28411 (Simulation time: 0 hr 1 min 48 sec) 
Heartbeat CPU  0 instructions:   43000000 cycles:   33487519 heartbeat IPC: 1.28190 cumulative IPC: 1.28406 (Simulation time: 0 hr 1 min 51 sec) 
Heartbeat CPU  0 instructions:   44000000 cycles:   34266939 heartbeat IPC: 1.28301 cumulative IPC: 1.28404 (Simulation time: 0 hr 1 min 54 sec) 
Heartbeat CPU  0 instructions:   45000000 cycles:   35046632 heartbeat IPC: 1.28256 cumulative IPC: 1.28400 (Simulation time: 0 hr 1 min 56 sec) 
Heartbeat CPU  0 instructions:   46000002 cycles:   35826250 heartbeat IPC: 1.28268 cumulative IPC: 1.28397 (Simulation time: 0 hr 1 min 59 sec) 
Heartbeat CPU  0 instructions:   47000001 cycles:   36605228 heartbeat IPC: 1.28373 cumulative IPC: 1.28397 (Simulation time: 0 hr 2 min 1 sec) 
Heartbeat CPU  0 instructions:   48000000 cycles:   37384052 heartbeat IPC: 1.28399 cumulative IPC: 1.28397 (Simulation time: 0 hr 2 min 4 sec) 
Heartbeat CPU  0 instructions:   49000001 cycles:   38163911 heartbeat IPC: 1.28228 cumulative IPC: 1.28394 (Simulation time: 0 hr 2 min 7 sec) 
Heartbeat CPU  0 instructions:   50000002 cycles:   38943706 heartbeat IPC: 1.28239 cumulative IPC: 1.28390 (Simulation time: 0 hr 2 min 9 sec) 
Heartbeat CPU  0 instructions:   51000000 cycles:   39722591 heartbeat IPC: 1.28388 cumulative IPC: 1.28390 (Simulation time: 0 hr 2 min 12 sec) 
Heartbeat CPU  0 instructions:   52000000 cycles:   40501523 heartbeat IPC: 1.28381 cumulative IPC: 1.28390 (Simulation time: 0 hr 2 min 15 sec) 
Heartbeat CPU  0 instructions:   53000002 cycles:   41282275 heartbeat IPC: 1.28082 cumulative IPC: 1.28384 (Simulation time: 0 hr 2 min 17 sec) 
Heartbeat CPU  0 instructions:   54000000 cycles:   42062678 heartbeat IPC: 1.28139 cumulative IPC: 1.28380 (Simulation time: 0 hr 2 min 20 sec) 
Heartbeat CPU  0 instructions:   55000003 cycles:   42842662 heartbeat IPC: 1.28208 cumulative IPC: 1.28377 (Simulation time: 0 hr 2 min 22 sec) 
Heartbeat CPU  0 instructions:   56000000 cycles:   43622931 heartbeat IPC: 1.28161 cumulative IPC: 1.28373 (Simulation time: 0 hr 2 min 25 sec) 
Heartbeat CPU  0 instructions:   57000001 cycles:   44404130 heartbeat IPC: 1.28008 cumulative IPC: 1.28366 (Simulation time: 0 hr 2 min 28 sec) 
Heartbeat CPU  0 instructions:   58000000 cycles:   45184761 heartbeat IPC: 1.28101 cumulative IPC: 1.28362 (Simulation time: 0 hr 2 min 30 sec) 
Heartbeat CPU  0 instructions:   59000001 cycles:   45965143 heartbeat IPC: 1.28142 cumulative IPC: 1.28358 (Simulation time: 0 hr 2 min 33 sec) 
Heartbeat CPU  0 instructions:   60000000 cycles:   46745651 heartbeat IPC: 1.28122 cumulative IPC: 1.28354 (Simulation time: 0 hr 2 min 35 sec) 
Heartbeat CPU  0 instructions:   61000003 cycles:   47526708 heartbeat IPC: 1.28032 cumulative IPC: 1.28349 (Simulation time: 0 hr 2 min 38 sec) 
Heartbeat CPU  0 instructions:   62000002 cycles:   48305921 heartbeat IPC: 1.28334 cumulative IPC: 1.28349 (Simulation time: 0 hr 2 min 41 sec) 
Heartbeat CPU  0 instructions:   63000002 cycles:   49085216 heartbeat IPC: 1.28321 cumulative IPC: 1.28348 (Simulation time: 0 hr 2 min 43 sec) 
Heartbeat CPU  0 instructions:   64000000 cycles:   49864374 heartbeat IPC: 1.28343 cumulative IPC: 1.28348 (Simulation time: 0 hr 2 min 46 sec) 
Heartbeat CPU  0 instructions:   65000002 cycles:   50643891 heartbeat IPC: 1.28285 cumulative IPC: 1.28347 (Simulation time: 0 hr 2 min 48 sec) 
Heartbeat CPU  0 instructions:   66000001 cycles:   51422763 heartbeat IPC: 1.28391 cumulative IPC: 1.28348 (Simulation time: 0 hr 2 min 51 sec) 
Heartbeat CPU  0 instructions:   67000003 cycles:   52201712 heartbeat IPC: 1.28378 cumulative IPC: 1.28348 (Simulation time: 0 hr 2 min 54 sec) 
Heartbeat CPU  0 instructions:   68000000 cycles:   52981642 heartbeat IPC: 1.28216 cumulative IPC: 1.28346 (Simulation time: 0 hr 2 min 56 sec) 
Heartbeat CPU  0 instructions:   69000002 cycles:   53761006 heartbeat IPC: 1.28310 cumulative IPC: 1.28346 (Simulation time: 0 hr 2 min 59 sec) 
Heartbeat CPU  0 instructions:   70000001 cycles:   54540681 heartbeat IPC: 1.28258 cumulative IPC: 1.28345 (Simulation time: 0 hr 3 min 2 sec) 
Heartbeat CPU  0 instructions:   71000003 cycles:   55320673 heartbeat IPC: 1.28207 cumulative IPC: 1.28343 (Simulation time: 0 hr 3 min 4 sec) 
Heartbeat CPU  0 instructions:   72000000 cycles:   56100894 heartbeat IPC: 1.28168 cumulative IPC: 1.28340 (Simulation time: 0 hr 3 min 7 sec) 
Heartbeat CPU  0 instructions:   73000000 cycles:   56882071 heartbeat IPC: 1.28012 cumulative IPC: 1.28336 (Simulation time: 0 hr 3 min 9 sec) 
Heartbeat CPU  0 instructions:   74000002 cycles:   57662650 heartbeat IPC: 1.28110 cumulative IPC: 1.28333 (Simulation time: 0 hr 3 min 12 sec) 
Heartbeat CPU  0 instructions:   75000000 cycles:   58443824 heartbeat IPC: 1.28012 cumulative IPC: 1.28328 (Simulation time: 0 hr 3 min 15 sec) 
Heartbeat CPU  0 instructions:   76000000 cycles:   59224495 heartbeat IPC: 1.28095 cumulative IPC: 1.28325 (Simulation time: 0 hr 3 min 17 sec) 
Heartbeat CPU  0 instructions:   77000003 cycles:   60004409 heartbeat IPC: 1.28220 cumulative IPC: 1.28324 (Simulation time: 0 hr 3 min 20 sec) 
Heartbeat CPU  0 instructions:   78000001 cycles:   60784609 heartbeat IPC: 1.28172 cumulative IPC: 1.28322 (Simulation time: 0 hr 3 min 23 sec) 
Heartbeat CPU  0 instructions:   79000001 cycles:   61565878 heartbeat IPC: 1.27997 cumulative IPC: 1.28318 (Simulation time: 0 hr 3 min 25 sec) 
Heartbeat CPU  0 instructions:   80000000 cycles:   62346057 heartbeat IPC: 1.28176 cumulative IPC: 1.28316 (Simulation time: 0 hr 3 min 28 sec) 
Heartbeat CPU  0 instructions:   81000001 cycles:   63124879 heartbeat IPC: 1.28399 cumulative IPC: 1.28317 (Simulation time: 0 hr 3 min 30 sec) 
Heartbeat CPU  0 instructions:   82000002 cycles:   63903430 heartbeat IPC: 1.28444 cumulative IPC: 1.28319 (Simulation time: 0 hr 3 min 33 sec) 
Heartbeat CPU  0 instructions:   83000000 cycles:   64684604 heartbeat IPC: 1.28012 cumulative IPC: 1.28315 (Simulation time: 0 hr 3 min 36 sec) 
Heartbeat CPU  0 instructions:   84000000 cycles:   65463675 heartbeat IPC: 1.28358 cumulative IPC: 1.28315 (Simulation time: 0 hr 3 min 38 sec) 
Heartbeat CPU  0 instructions:   85000002 cycles:   66242570 heartbeat IPC: 1.28387 cumulative IPC: 1.28316 (Simulation time: 0 hr 3 min 41 sec) 
Heartbeat CPU  0 instructions:   86000001 cycles:   67021594 heartbeat IPC: 1.28366 cumulative IPC: 1.28317 (Simulation time: 0 hr 3 min 43 sec) 
Heartbeat CPU  0 instructions:   87000001 cycles:   67800841 heartbeat IPC: 1.28329 cumulative IPC: 1.28317 (Simulation time: 0 hr 3 min 46 sec) 
Heartbeat CPU  0 instructions:   88000000 cycles:   68580019 heartbeat IPC: 1.28340 cumulative IPC: 1.28317 (Simulation time: 0 hr 3 min 49 sec) 
Heartbeat CPU  0 instructions:   89000001 cycles:   69360172 heartbeat IPC: 1.28180 cumulative IPC: 1.28316 (Simulation time: 0 hr 3 min 51 sec) 
Heartbeat CPU  0 instructions:   90000003 cycles:   70140388 heartbeat IPC: 1.28170 cumulative IPC: 1.28314 (Simulation time: 0 hr 3 min 54 sec) 
Heartbeat CPU  0 instructions:   91000001 cycles:   70920663 heartbeat IPC: 1.28160 cumulative IPC: 1.28312 (Simulation time: 0 hr 3 min 56 sec) 
Heartbeat CPU  0 instructions:   92000000 cycles:   71701282 heartbeat IPC: 1.28103 cumulative IPC: 1.28310 (Simulation time: 0 hr 3 min 59 sec) 
Heartbeat CPU  0 instructions:   93000002 cycles:   72481742 heartbeat IPC: 1.28130 cumulative IPC: 1.28308 (Simulation time: 0 hr 4 min 2 sec) 
Heartbeat CPU  0 instructions:   94000000 cycles:   73262129 heartbeat IPC: 1.28141 cumulative IPC: 1.28306 (Simulation time: 0 hr 4 min 4 sec) 
Heartbeat CPU  0 instructions:   95000001 cycles:   74042215 heartbeat IPC: 1.28191 cumulative IPC: 1.28305 (Simulation time: 0 hr 4 min 7 sec) 
Heartbeat CPU  0 instructions:   96000000 cycles:   74822633 heartbeat IPC: 1.28136 cumulative IPC: 1.28303 (Simulation time: 0 hr 4 min 10 sec) 
Heartbeat CPU  0 instructions:   97000002 cycles:   75603938 heartbeat IPC: 1.27991 cumulative IPC: 1.28300 (Simulation time: 0 hr 4 min 12 sec) 
Heartbeat CPU  0 instructions:   98000001 cycles:   76383250 heartbeat IPC: 1.28318 cumulative IPC: 1.28300 (Simulation time: 0 hr 4 min 15 sec) 
Heartbeat CPU  0 instructions:   99000003 cycles:   77162321 heartbeat IPC: 1.28358 cumulative IPC: 1.28301 (Simulation time: 0 hr 4 min 17 sec) 
Heartbeat CPU  0 instructions:  100000000 cycles:   77941155 heartbeat IPC: 1.28397 cumulative IPC: 1.28302 (Simulation time: 0 hr 4 min 20 sec) 

Warmup complete CPU  0 instructions:  100000001 cycles:   77941156 (Simulation time: 0 hr 4 min 20 sec) 

Heartbeat CPU  0 instructions:  101000003 cycles:   79337308 heartbeat IPC: 0.71626 cumulative IPC: 0.71626 (Simulation time: 0 hr 4 min 23 sec) 
Heartbeat CPU  0 instructions:  102000000 cycles:   80726456 heartbeat IPC: 0.71986 cumulative IPC: 0.71806 (Simulation time: 0 hr 4 min 26 sec) 
Heartbeat CPU  0 instructions:  103000002 cycles:   82124289 heartbeat IPC: 0.71539 cumulative IPC: 0.71717 (Simulation time: 0 hr 4 min 29 sec) 
Heartbeat CPU  0 instructions:  104000000 cycles:   83487857 heartbeat IPC: 0.73337 cumulative IPC: 0.72115 (Simulation time: 0 hr 4 min 33 sec) 
Heartbeat CPU  0 instructions:  105000003 cycles:   84894985 heartbeat IPC: 0.71067 cumulative IPC: 0.71903 (Simulation time: 0 hr 4 min 36 sec) 
Heartbeat CPU  0 instructions:  106000002 cycles:   86250840 heartbeat IPC: 0.73754 cumulative IPC: 0.72205 (Simulation time: 0 hr 4 min 39 sec) 
Heartbeat CPU  0 instructions:  107000000 cycles:   87618781 heartbeat IPC: 0.73102 cumulative IPC: 0.72332 (Simulation time: 0 hr 4 min 42 sec) 
Heartbeat CPU  0 instructions:  108000000 cycles:   89006766 heartbeat IPC: 0.72047 cumulative IPC: 0.72296 (Simulation time: 0 hr 4 min 45 sec) 
Heartbeat CPU  0 instructions:  109000003 cycles:   90393788 heartbeat IPC: 0.72097 cumulative IPC: 0.72274 (Simulation time: 0 hr 4 min 49 sec) 
Heartbeat CPU  0 instructions:  110000001 cycles:   91771747 heartbeat IPC: 0.72571 cumulative IPC: 0.72303 (Simulation time: 0 hr 4 min 52 sec) 
Heartbeat CPU  0 instructions:  111000000 cycles:   93124567 heartbeat IPC: 0.73920 cumulative IPC: 0.72447 (Simulation time: 0 hr 4 min 55 sec) 
Heartbeat CPU  0 instructions:  112000000 cycles:   94484834 heartbeat IPC: 0.73515 cumulative IPC: 0.72535 (Simulation time: 0 hr 4 min 58 sec) 
Heartbeat CPU  0 instructions:  113000000 cycles:   95859285 heartbeat IPC: 0.72756 cumulative IPC: 0.72552 (Simulation time: 0 hr 5 min 1 sec) 
Heartbeat CPU  0 instructions:  114000002 cycles:   97213305 heartbeat IPC: 0.73854 cumulative IPC: 0.72644 (Simulation time: 0 hr 5 min 4 sec) 
Heartbeat CPU  0 instructions:  115000000 cycles:   98575670 heartbeat IPC: 0.73402 cumulative IPC: 0.72694 (Simulation time: 0 hr 5 min 8 sec) 
Heartbeat CPU  0 instructions:  116000000 cycles:   99947404 heartbeat IPC: 0.72900 cumulative IPC: 0.72707 (Simulation time: 0 hr 5 min 11 sec) 
Heartbeat CPU  0 instructions:  117000000 cycles:  101315603 heartbeat IPC: 0.73089 cumulative IPC: 0.72729 (Simulation time: 0 hr 5 min 14 sec) 
Heartbeat CPU  0 instructions:  118000003 cycles:  102668552 heartbeat IPC: 0.73913 cumulative IPC: 0.72794 (Simulation time: 0 hr 5 min 17 sec) 
Heartbeat CPU  0 instructions:  119000001 cycles:  104026243 heartbeat IPC: 0.73654 cumulative IPC: 0.72839 (Simulation time: 0 hr 5 min 20 sec) 
Heartbeat CPU  0 instructions:  120000000 cycles:  105402463 heartbeat IPC: 0.72663 cumulative IPC: 0.72830 (Simulation time: 0 hr 5 min 23 sec) 
Heartbeat CPU  0 instructions:  121000000 cycles:  106762855 heartbeat IPC: 0.73508 cumulative IPC: 0.72862 (Simulation time: 0 hr 5 min 26 sec) 
Heartbeat CPU  0 instructions:  122000002 cycles:  108140796 heartbeat IPC: 0.72572 cumulative IPC: 0.72849 (Simulation time: 0 hr 5 min 30 sec) 
Heartbeat CPU  0 instructions:  123000000 cycles:  109523564 heartbeat IPC: 0.72319 cumulative IPC: 0.72825 (Simulation time: 0 hr 5 min 33 sec) 
Heartbeat CPU  0 instructions:  124000000 cycles:  110899951 heartbeat IPC: 0.72654 cumulative IPC: 0.72818 (Simulation time: 0 hr 5 min 36 sec) 
Heartbeat CPU  0 instructions:  125000002 cycles:  112279208 heartbeat IPC: 0.72503 cumulative IPC: 0.72806 (Simulation time: 0 hr 5 min 39 sec) 
Heartbeat CPU  0 instructions:  126000000 cycles:  113644147 heartbeat IPC: 0.73263 cumulative IPC: 0.72823 (Simulation time: 0 hr 5 min 42 sec) 
Heartbeat CPU  0 instructions:  127000002 cycles:  115037449 heartbeat IPC: 0.71772 cumulative IPC: 0.72784 (Simulation time: 0 hr 5 min 45 sec) 
Heartbeat CPU  0 instructions:  128000000 cycles:  116410457 heartbeat IPC: 0.72833 cumulative IPC: 0.72785 (Simulation time: 0 hr 5 min 49 sec) 
Heartbeat CPU  0 instructions:  129000001 cycles:  117772630 heartbeat IPC: 0.73412 cumulative IPC: 0.72807 (Simulation time: 0 hr 5 min 52 sec) 
Heartbeat CPU  0 instructions:  130000003 cycles:  119170917 heartbeat IPC: 0.71516 cumulative IPC: 0.72763 (Simulation time: 0 hr 5 min 55 sec) 
Heartbeat CPU  0 instructions:  131000003 cycles:  120581400 heartbeat IPC: 0.70898 cumulative IPC: 0.72701 (Simulation time: 0 hr 5 min 58 sec) 
Heartbeat CPU  0 instructions:  132000000 cycles:  121956779 heartbeat IPC: 0.72707 cumulative IPC: 0.72701 (Simulation time: 0 hr 6 min 1 sec) 
Heartbeat CPU  0 instructions:  133000000 cycles:  123325276 heartbeat IPC: 0.73073 cumulative IPC: 0.72713 (Simulation time: 0 hr 6 min 4 sec) 
Heartbeat CPU  0 instructions:  134000002 cycles:  124700953 heartbeat IPC: 0.72692 cumulative IPC: 0.72712 (Simulation time: 0 hr 6 min 7 sec) 
Heartbeat CPU  0 instructions:  135000002 cycles:  126011393 heartbeat IPC: 0.76310 cumulative IPC: 0.72810 (Simulation time: 0 hr 6 min 11 sec) 
Heartbeat CPU  0 instructions:  136000000 cycles:  127277445 heartbeat IPC: 0.78986 cumulative IPC: 0.72969 (Simulation time: 0 hr 6 min 14 sec) 
Heartbeat CPU  0 instructions:  137000002 cycles:  128405667 heartbeat IPC: 0.88635 cumulative IPC: 0.73319 (Simulation time: 0 hr 6 min 16 sec) 
Heartbeat CPU  0 instructions:  138000003 cycles:  129525334 heartbeat IPC: 0.89312 cumulative IPC: 0.73666 (Simulation time: 0 hr 6 min 19 sec) 
Heartbeat CPU  0 instructions:  139000001 cycles:  130649612 heartbeat IPC: 0.88946 cumulative IPC: 0.73992 (Simulation time: 0 hr 6 min 22 sec) 
Heartbeat CPU  0 instructions:  140000000 cycles:  131723926 heartbeat IPC: 0.93083 cumulative IPC: 0.74373 (Simulation time: 0 hr 6 min 25 sec) 
Heartbeat CPU  0 instructions:  141000003 cycles:  132794205 heartbeat IPC: 0.93434 cumulative IPC: 0.74745 (Simulation time: 0 hr 6 min 28 sec) 
Heartbeat CPU  0 instructions:  142000003 cycles:  133865764 heartbeat IPC: 0.93322 cumulative IPC: 0.75101 (Simulation time: 0 hr 6 min 30 sec) 
Heartbeat CPU  0 instructions:  143000000 cycles:  135146157 heartbeat IPC: 0.78101 cumulative IPC: 0.75168 (Simulation time: 0 hr 6 min 33 sec) 
Heartbeat CPU  0 instructions:  144000000 cycles:  136527453 heartbeat IPC: 0.72396 cumulative IPC: 0.75103 (Simulation time: 0 hr 6 min 37 sec) 
Heartbeat CPU  0 instructions:  145000002 cycles:  137869264 heartbeat IPC: 0.74526 cumulative IPC: 0.75090 (Simulation time: 0 hr 6 min 40 sec) 
Heartbeat CPU  0 instructions:  146000000 cycles:  139211571 heartbeat IPC: 0.74498 cumulative IPC: 0.75077 (Simulation time: 0 hr 6 min 43 sec) 
Heartbeat CPU  0 instructions:  147000002 cycles:  140555650 heartbeat IPC: 0.74401 cumulative IPC: 0.75062 (Simulation time: 0 hr 6 min 46 sec) 
Heartbeat CPU  0 instructions:  148000000 cycles:  141895983 heartbeat IPC: 0.74608 cumulative IPC: 0.75053 (Simulation time: 0 hr 6 min 49 sec) 
Heartbeat CPU  0 instructions:  149000001 cycles:  143242719 heartbeat IPC: 0.74254 cumulative IPC: 0.75036 (Simulation time: 0 hr 6 min 52 sec) 
Heartbeat CPU  0 instructions:  150000003 cycles:  144606551 heartbeat IPC: 0.73323 cumulative IPC: 0.75001 (Simulation time: 0 hr 6 min 55 sec) 
Heartbeat CPU  0 instructions:  151000001 cycles:  145984057 heartbeat IPC: 0.72595 cumulative IPC: 0.74953 (Simulation time: 0 hr 6 min 59 sec) 
Heartbeat CPU  0 instructions:  152000000 cycles:  147356242 heartbeat IPC: 0.72876 cumulative IPC: 0.74912 (Simulation time: 0 hr 7 min 2 sec) 
Heartbeat CPU  0 instructions:  153000002 cycles:  148693467 heartbeat IPC: 0.74782 cumulative IPC: 0.74909 (Simulation time: 0 hr 7 min 5 sec) 
Heartbeat CPU  0 instructions:  154000000 cycles:  150048440 heartbeat IPC: 0.73802 cumulative IPC: 0.74888 (Simulation time: 0 hr 7 min 8 sec) 
Heartbeat CPU  0 instructions:  155000000 cycles:  151418559 heartbeat IPC: 0.72986 cumulative IPC: 0.74853 (Simulation time: 0 hr 7 min 11 sec) 
Heartbeat CPU  0 instructions:  156000000 cycles:  152781545 heartbeat IPC: 0.73368 cumulative IPC: 0.74826 (Simulation time: 0 hr 7 min 14 sec) 
Heartbeat CPU  0 instructions:  157000001 cycles:  154138137 heartbeat IPC: 0.73714 cumulative IPC: 0.74806 (Simulation time: 0 hr 7 min 17 sec) 
Heartbeat CPU  0 instructions:  158000003 cycles:  155502186 heartbeat IPC: 0.73311 cumulative IPC: 0.74780 (Simulation time: 0 hr 7 min 21 sec) 
Heartbeat CPU  0 instructions:  159000002 cycles:  156890560 heartbeat IPC: 0.72027 cumulative IPC: 0.74731 (Simulation time: 0 hr 7 min 24 sec) 
Heartbeat CPU  0 instructions:  160000000 cycles:  158249275 heartbeat IPC: 0.73599 cumulative IPC: 0.74712 (Simulation time: 0 hr 7 min 27 sec) 
Heartbeat CPU  0 instructions:  161000003 cycles:  159624457 heartbeat IPC: 0.72718 cumulative IPC: 0.74679 (Simulation time: 0 hr 7 min 30 sec) 
Heartbeat CPU  0 instructions:  162000003 cycles:  160988789 heartbeat IPC: 0.73296 cumulative IPC: 0.74656 (Simulation time: 0 hr 7 min 33 sec) 
Heartbeat CPU  0 instructions:  163000001 cycles:  162354252 heartbeat IPC: 0.73235 cumulative IPC: 0.74633 (Simulation time: 0 hr 7 min 36 sec) 
Heartbeat CPU  0 instructions:  164000000 cycles:  163726360 heartbeat IPC: 0.72880 cumulative IPC: 0.74605 (Simulation time: 0 hr 7 min 40 sec) 
Heartbeat CPU  0 instructions:  165000002 cycles:  165095402 heartbeat IPC: 0.73044 cumulative IPC: 0.74580 (Simulation time: 0 hr 7 min 43 sec) 
Heartbeat CPU  0 instructions:  166000000 cycles:  166480053 heartbeat IPC: 0.72220 cumulative IPC: 0.74544 (Simulation time: 0 hr 7 min 46 sec) 
Heartbeat CPU  0 instructions:  167000002 cycles:  167842705 heartbeat IPC: 0.73386 cumulative IPC: 0.74526 (Simulation time: 0 hr 7 min 49 sec) 
Heartbeat CPU  0 instructions:  168000000 cycles:  169195988 heartbeat IPC: 0.73894 cumulative IPC: 0.74517 (Simulation time: 0 hr 7 min 52 sec) 
Heartbeat CPU  0 instructions:  169000001 cycles:  170542624 heartbeat IPC: 0.74259 cumulative IPC: 0.74513 (Simulation time: 0 hr 7 min 55 sec) 
Heartbeat CPU  0 instructions:  170000003 cycles:  171935074 heartbeat IPC: 0.71816 cumulative IPC: 0.74473 (Simulation time: 0 hr 7 min 59 sec) 
Heartbeat CPU  0 instructions:  171000002 cycles:  173285953 heartbeat IPC: 0.74026 cumulative IPC: 0.74467 (Simulation time: 0 hr 8 min 2 sec) 
Heartbeat CPU  0 instructions:  172000000 cycles:  174655903 heartbeat IPC: 0.72995 cumulative IPC: 0.74446 (Simulation time: 0 hr 8 min 5 sec) 
Heartbeat CPU  0 instructions:  173000002 cycles:  175996694 heartbeat IPC: 0.74583 cumulative IPC: 0.74448 (Simulation time: 0 hr 8 min 8 sec) 
Heartbeat CPU  0 instructions:  174000000 cycles:  177336458 heartbeat IPC: 0.74640 cumulative IPC: 0.74450 (Simulation time: 0 hr 8 min 11 sec) 
Heartbeat CPU  0 instructions:  175000001 cycles:  178675220 heartbeat IPC: 0.74696 cumulative IPC: 0.74453 (Simulation time: 0 hr 8 min 14 sec) 
Heartbeat CPU  0 instructions:  176000000 cycles:  180013752 heartbeat IPC: 0.74709 cumulative IPC: 0.74457 (Simulation time: 0 hr 8 min 18 sec) 
Heartbeat CPU  0 instructions:  177000001 cycles:  181388654 heartbeat IPC: 0.72733 cumulative IPC: 0.74434 (Simulation time: 0 hr 8 min 21 sec) 
Heartbeat CPU  0 instructions:  178000000 cycles:  182742616 heartbeat IPC: 0.73857 cumulative IPC: 0.74426 (Simulation time: 0 hr 8 min 24 sec) 
Heartbeat CPU  0 instructions:  179000002 cycles:  184092967 heartbeat IPC: 0.74055 cumulative IPC: 0.74422 (Simulation time: 0 hr 8 min 27 sec) 
Heartbeat CPU  0 instructions:  180000000 cycles:  185433894 heartbeat IPC: 0.74575 cumulative IPC: 0.74424 (Simulation time: 0 hr 8 min 30 sec) 
Heartbeat CPU  0 instructions:  181000002 cycles:  186794373 heartbeat IPC: 0.73504 cumulative IPC: 0.74412 (Simulation time: 0 hr 8 min 34 sec) 
Heartbeat CPU  0 instructions:  182000003 cycles:  188143555 heartbeat IPC: 0.74119 cumulative IPC: 0.74409 (Simulation time: 0 hr 8 min 37 sec) 
Heartbeat CPU  0 instructions:  183000001 cycles:  189496604 heartbeat IPC: 0.73907 cumulative IPC: 0.74402 (Simulation time: 0 hr 8 min 40 sec) 
Heartbeat CPU  0 instructions:  184000000 cycles:  190869637 heartbeat IPC: 0.72831 cumulative IPC: 0.74383 (Simulation time: 0 hr 8 min 43 sec) 
Heartbeat CPU  0 instructions:  185000003 cycles:  192252218 heartbeat IPC: 0.72329 cumulative IPC: 0.74359 (Simulation time: 0 hr 8 min 46 sec) 
Heartbeat CPU  0 instructions:  186000000 cycles:  193595059 heartbeat IPC: 0.74469 cumulative IPC: 0.74360 (Simulation time: 0 hr 8 min 49 sec) 
Heartbeat CPU  0 instructions:  187000000 cycles:  194957980 heartbeat IPC: 0.73372 cumulative IPC: 0.74348 (Simulation time: 0 hr 8 min 53 sec) 
Heartbeat CPU  0 instructions:  188000000 cycles:  196332723 heartbeat IPC: 0.72741 cumulative IPC: 0.74330 (Simulation time: 0 hr 8 min 56 sec) 
Heartbeat CPU  0 instructions:  189000001 cycles:  197733619 heartbeat IPC: 0.71383 cumulative IPC: 0.74295 (Simulation time: 0 hr 8 min 59 sec) 
Heartbeat CPU  0 instructions:  190000003 cycles:  199071592 heartbeat IPC: 0.74740 cumulative IPC: 0.74300 (Simulation time: 0 hr 9 min 2 sec) 
Heartbeat CPU  0 instructions:  191000002 cycles:  200412177 heartbeat IPC: 0.74594 cumulative IPC: 0.74303 (Simulation time: 0 hr 9 min 5 sec) 
Heartbeat CPU  0 instructions:  192000000 cycles:  201809518 heartbeat IPC: 0.71564 cumulative IPC: 0.74272 (Simulation time: 0 hr 9 min 9 sec) 
Heartbeat CPU  0 instructions:  193000002 cycles:  203167268 heartbeat IPC: 0.73651 cumulative IPC: 0.74266 (Simulation time: 0 hr 9 min 12 sec) 
Heartbeat CPU  0 instructions:  194000003 cycles:  204550928 heartbeat IPC: 0.72272 cumulative IPC: 0.74244 (Simulation time: 0 hr 9 min 15 sec) 
Heartbeat CPU  0 instructions:  195000001 cycles:  205897533 heartbeat IPC: 0.74261 cumulative IPC: 0.74244 (Simulation time: 0 hr 9 min 18 sec) 
Heartbeat CPU  0 instructions:  196000000 cycles:  207253199 heartbeat IPC: 0.73764 cumulative IPC: 0.74239 (Simulation time: 0 hr 9 min 21 sec) 
Heartbeat CPU  0 instructions:  197000001 cycles:  208622674 heartbeat IPC: 0.73021 cumulative IPC: 0.74226 (Simulation time: 0 hr 9 min 24 sec) 
Heartbeat CPU  0 instructions:  198000000 cycles:  209982974 heartbeat IPC: 0.73513 cumulative IPC: 0.74219 (Simulation time: 0 hr 9 min 28 sec) 
Heartbeat CPU  0 instructions:  199000002 cycles:  211354360 heartbeat IPC: 0.72919 cumulative IPC: 0.74206 (Simulation time: 0 hr 9 min 31 sec) 
Heartbeat CPU  0 instructions:  200000000 cycles:  212710881 heartbeat IPC: 0.73718 cumulative IPC: 0.74201 (Simulation time: 0 hr 9 min 34 sec) 
Heartbeat CPU  0 instructions:  201000001 cycles:  214066413 heartbeat IPC: 0.73772 cumulative IPC: 0.74196 (Simulation time: 0 hr 9 min 37 sec) 
Heartbeat CPU  0 instructions:  202000003 cycles:  215406613 heartbeat IPC: 0.74616 cumulative IPC: 0.74200 (Simulation time: 0 hr 9 min 40 sec) 
Heartbeat CPU  0 instructions:  203000001 cycles:  216762011 heartbeat IPC: 0.73779 cumulative IPC: 0.74196 (Simulation time: 0 hr 9 min 43 sec) 
Heartbeat CPU  0 instructions:  204000000 cycles:  218108133 heartbeat IPC: 0.74287 cumulative IPC: 0.74197 (Simulation time: 0 hr 9 min 47 sec) 
Heartbeat CPU  0 instructions:  205000001 cycles:  219445307 heartbeat IPC: 0.74785 cumulative IPC: 0.74203 (Simulation time: 0 hr 9 min 50 sec) 
Heartbeat CPU  0 instructions:  206000000 cycles:  220796716 heartbeat IPC: 0.73997 cumulative IPC: 0.74201 (Simulation time: 0 hr 9 min 53 sec) 
Heartbeat CPU  0 instructions:  207000001 cycles:  222169858 heartbeat IPC: 0.72826 cumulative IPC: 0.74188 (Simulation time: 0 hr 9 min 56 sec) 
Heartbeat CPU  0 instructions:  208000000 cycles:  223515935 heartbeat IPC: 0.74290 cumulative IPC: 0.74189 (Simulation time: 0 hr 9 min 59 sec) 
Heartbeat CPU  0 instructions:  209000001 cycles:  224860671 heartbeat IPC: 0.74364 cumulative IPC: 0.74190 (Simulation time: 0 hr 10 min 2 sec) 
Heartbeat CPU  0 instructions:  210000000 cycles:  226220203 heartbeat IPC: 0.73555 cumulative IPC: 0.74184 (Simulation time: 0 hr 10 min 6 sec) 
Heartbeat CPU  0 instructions:  211000002 cycles:  227587818 heartbeat IPC: 0.73120 cumulative IPC: 0.74175 (Simulation time: 0 hr 10 min 9 sec) 
Heartbeat CPU  0 instructions:  212000000 cycles:  228934618 heartbeat IPC: 0.74250 cumulative IPC: 0.74175 (Simulation time: 0 hr 10 min 12 sec) 
Heartbeat CPU  0 instructions:  213000000 cycles:  230300161 heartbeat IPC: 0.73231 cumulative IPC: 0.74167 (Simulation time: 0 hr 10 min 15 sec) 
Heartbeat CPU  0 instructions:  214000003 cycles:  231680124 heartbeat IPC: 0.72466 cumulative IPC: 0.74152 (Simulation time: 0 hr 10 min 18 sec) 
Heartbeat CPU  0 instructions:  215000001 cycles:  233033807 heartbeat IPC: 0.73872 cumulative IPC: 0.74149 (Simulation time: 0 hr 10 min 21 sec) 
Heartbeat CPU  0 instructions:  216000000 cycles:  234398185 heartbeat IPC: 0.73293 cumulative IPC: 0.74142 (Simulation time: 0 hr 10 min 25 sec) 
Heartbeat CPU  0 instructions:  217000003 cycles:  235756247 heartbeat IPC: 0.73635 cumulative IPC: 0.74137 (Simulation time: 0 hr 10 min 28 sec) 
Heartbeat CPU  0 instructions:  218000000 cycles:  237153425 heartbeat IPC: 0.71573 cumulative IPC: 0.74115 (Simulation time: 0 hr 10 min 31 sec) 
Heartbeat CPU  0 instructions:  219000002 cycles:  238498999 heartbeat IPC: 0.74318 cumulative IPC: 0.74117 (Simulation time: 0 hr 10 min 34 sec) 
Heartbeat CPU  0 instructions:  220000000 cycles:  239856943 heartbeat IPC: 0.73641 cumulative IPC: 0.74113 (Simulation time: 0 hr 10 min 37 sec) 
Heartbeat CPU  0 instructions:  221000001 cycles:  241227624 heartbeat IPC: 0.72957 cumulative IPC: 0.74103 (Simulation time: 0 hr 10 min 40 sec) 
Heartbeat CPU  0 instructions:  222000003 cycles:  242595489 heartbeat IPC: 0.73107 cumulative IPC: 0.74095 (Simulation time: 0 hr 10 min 44 sec) 
Heartbeat CPU  0 instructions:  223000001 cycles:  243953580 heartbeat IPC: 0.73633 cumulative IPC: 0.74091 (Simulation time: 0 hr 10 min 47 sec) 
Heartbeat CPU  0 instructions:  224000000 cycles:  245304019 heartbeat IPC: 0.74050 cumulative IPC: 0.74091 (Simulation time: 0 hr 10 min 50 sec) 
Heartbeat CPU  0 instructions:  225000002 cycles:  246672922 heartbeat IPC: 0.73051 cumulative IPC: 0.74082 (Simulation time: 0 hr 10 min 53 sec) 
Heartbeat CPU  0 instructions:  226000000 cycles:  248037730 heartbeat IPC: 0.73270 cumulative IPC: 0.74076 (Simulation time: 0 hr 10 min 56 sec) 
Heartbeat CPU  0 instructions:  227000001 cycles:  249414822 heartbeat IPC: 0.72617 cumulative IPC: 0.74064 (Simulation time: 0 hr 11 min 0 sec) 
Heartbeat CPU  0 instructions:  228000000 cycles:  250768350 heartbeat IPC: 0.73881 cumulative IPC: 0.74062 (Simulation time: 0 hr 11 min 3 sec) 
Heartbeat CPU  0 instructions:  229000001 cycles:  252171473 heartbeat IPC: 0.71270 cumulative IPC: 0.74040 (Simulation time: 0 hr 11 min 6 sec) 
Heartbeat CPU  0 instructions:  230000002 cycles:  253516408 heartbeat IPC: 0.74353 cumulative IPC: 0.74042 (Simulation time: 0 hr 11 min 9 sec) 
Heartbeat CPU  0 instructions:  231000003 cycles:  254858525 heartbeat IPC: 0.74509 cumulative IPC: 0.74046 (Simulation time: 0 hr 11 min 12 sec) 
Heartbeat CPU  0 instructions:  232000000 cycles:  256221716 heartbeat IPC: 0.73357 cumulative IPC: 0.74041 (Simulation time: 0 hr 11 min 15 sec) 
Heartbeat CPU  0 instructions:  233000001 cycles:  257589909 heartbeat IPC: 0.73089 cumulative IPC: 0.74033 (Simulation time: 0 hr 11 min 19 sec) 
Heartbeat CPU  0 instructions:  234000003 cycles:  258967919 heartbeat IPC: 0.72569 cumulative IPC: 0.74022 (Simulation time: 0 hr 11 min 22 sec) 
Heartbeat CPU  0 instructions:  235000001 cycles:  260310510 heartbeat IPC: 0.74483 cumulative IPC: 0.74026 (Simulation time: 0 hr 11 min 25 sec) 
Heartbeat CPU  0 instructions:  236000000 cycles:  261672752 heartbeat IPC: 0.73408 cumulative IPC: 0.74021 (Simulation time: 0 hr 11 min 28 sec) 
Heartbeat CPU  0 instructions:  237000001 cycles:  263028062 heartbeat IPC: 0.73784 cumulative IPC: 0.74019 (Simulation time: 0 hr 11 min 31 sec) 
Heartbeat CPU  0 instructions:  238000002 cycles:  264373710 heartbeat IPC: 0.74314 cumulative IPC: 0.74021 (Simulation time: 0 hr 11 min 34 sec) 
Heartbeat CPU  0 instructions:  239000002 cycles:  265727439 heartbeat IPC: 0.73870 cumulative IPC: 0.74020 (Simulation time: 0 hr 11 min 38 sec) 
Heartbeat CPU  0 instructions:  240000000 cycles:  267105654 heartbeat IPC: 0.72557 cumulative IPC: 0.74010 (Simulation time: 0 hr 11 min 41 sec) 
Heartbeat CPU  0 instructions:  241000001 cycles:  268468292 heartbeat IPC: 0.73387 cumulative IPC: 0.74005 (Simulation time: 0 hr 11 min 44 sec) 
Heartbeat CPU  0 instructions:  242000000 cycles:  269817819 heartbeat IPC: 0.74100 cumulative IPC: 0.74006 (Simulation time: 0 hr 11 min 47 sec) 
Heartbeat CPU  0 instructions:  243000002 cycles:  271160913 heartbeat IPC: 0.74455 cumulative IPC: 0.74009 (Simulation time: 0 hr 11 min 50 sec) 
Heartbeat CPU  0 instructions:  244000000 cycles:  272548581 heartbeat IPC: 0.72063 cumulative IPC: 0.73995 (Simulation time: 0 hr 11 min 54 sec) 
Heartbeat CPU  0 instructions:  245000000 cycles:  273901220 heartbeat IPC: 0.73930 cumulative IPC: 0.73995 (Simulation time: 0 hr 11 min 57 sec) 
Heartbeat CPU  0 instructions:  246000003 cycles:  275281764 heartbeat IPC: 0.72435 cumulative IPC: 0.73984 (Simulation time: 0 hr 12 min 0 sec) 
Heartbeat CPU  0 instructions:  247000001 cycles:  276627681 heartbeat IPC: 0.74299 cumulative IPC: 0.73986 (Simulation time: 0 hr 12 min 3 sec) 
Heartbeat CPU  0 instructions:  248000000 cycles:  277973750 heartbeat IPC: 0.74290 cumulative IPC: 0.73988 (Simulation time: 0 hr 12 min 6 sec) 
Heartbeat CPU  0 instructions:  249000001 cycles:  279355764 heartbeat IPC: 0.72358 cumulative IPC: 0.73977 (Simulation time: 0 hr 12 min 9 sec) 
Heartbeat CPU  0 instructions:  250000001 cycles:  280719442 heartbeat IPC: 0.73331 cumulative IPC: 0.73972 (Simulation time: 0 hr 12 min 13 sec) 
Heartbeat CPU  0 instructions:  251000001 cycles:  283317838 heartbeat IPC: 0.38485 cumulative IPC: 0.73523 (Simulation time: 0 hr 12 min 16 sec) 
Heartbeat CPU  0 instructions:  252000000 cycles:  285034846 heartbeat IPC: 0.58241 cumulative IPC: 0.73397 (Simulation time: 0 hr 12 min 19 sec) 
Heartbeat CPU  0 instructions:  253000000 cycles:  286593268 heartbeat IPC: 0.64167 cumulative IPC: 0.73328 (Simulation time: 0 hr 12 min 21 sec) 
Heartbeat CPU  0 instructions:  254000003 cycles:  288045688 heartbeat IPC: 0.68851 cumulative IPC: 0.73297 (Simulation time: 0 hr 12 min 23 sec) 
Heartbeat CPU  0 instructions:  255000002 cycles:  289497133 heartbeat IPC: 0.68897 cumulative IPC: 0.73267 (Simulation time: 0 hr 12 min 26 sec) 
Heartbeat CPU  0 instructions:  256000000 cycles:  296693551 heartbeat IPC: 0.13896 cumulative IPC: 0.71314 (Simulation time: 0 hr 12 min 31 sec) 
Heartbeat CPU  0 instructions:  257000000 cycles:  298406287 heartbeat IPC: 0.58386 cumulative IPC: 0.71213 (Simulation time: 0 hr 12 min 34 sec) 
Heartbeat CPU  0 instructions:  258000001 cycles:  299955375 heartbeat IPC: 0.64554 cumulative IPC: 0.71167 (Simulation time: 0 hr 12 min 36 sec) 
Heartbeat CPU  0 instructions:  259000002 cycles:  301409772 heartbeat IPC: 0.68757 cumulative IPC: 0.71151 (Simulation time: 0 hr 12 min 38 sec) 
Heartbeat CPU  0 instructions:  260000000 cycles:  302863056 heartbeat IPC: 0.68810 cumulative IPC: 0.71136 (Simulation time: 0 hr 12 min 41 sec) 
Heartbeat CPU  0 instructions:  261000000 cycles:  309606602 heartbeat IPC: 0.14829 cumulative IPC: 0.69497 (Simulation time: 0 hr 12 min 46 sec) 
Heartbeat CPU  0 instructions:  262000003 cycles:  311321451 heartbeat IPC: 0.58314 cumulative IPC: 0.69415 (Simulation time: 0 hr 12 min 48 sec) 
Heartbeat CPU  0 instructions:  263000001 cycles:  312883587 heartbeat IPC: 0.64015 cumulative IPC: 0.69379 (Simulation time: 0 hr 12 min 51 sec) 
Heartbeat CPU  0 instructions:  264000000 cycles:  314338423 heartbeat IPC: 0.68736 cumulative IPC: 0.69375 (Simulation time: 0 hr 12 min 53 sec) 
Heartbeat CPU  0 instructions:  265000001 cycles:  315792041 heartbeat IPC: 0.68794 cumulative IPC: 0.69371 (Simulation time: 0 hr 12 min 56 sec) 
Heartbeat CPU  0 instructions:  266000001 cycles:  322495338 heartbeat IPC: 0.14918 cumulative IPC: 0.67879 (Simulation time: 0 hr 13 min 1 sec) 
Heartbeat CPU  0 instructions:  267000003 cycles:  324181260 heartbeat IPC: 0.59315 cumulative IPC: 0.67820 (Simulation time: 0 hr 13 min 3 sec) 
Heartbeat CPU  0 instructions:  268000000 cycles:  325744796 heartbeat IPC: 0.63957 cumulative IPC: 0.67796 (Simulation time: 0 hr 13 min 6 sec) 
Heartbeat CPU  0 instructions:  269000002 cycles:  327197366 heartbeat IPC: 0.68844 cumulative IPC: 0.67802 (Simulation time: 0 hr 13 min 8 sec) 
Heartbeat CPU  0 instructions:  270000003 cycles:  328648564 heartbeat IPC: 0.68909 cumulative IPC: 0.67808 (Simulation time: 0 hr 13 min 11 sec) 
Heartbeat CPU  0 instructions:  271000000 cycles:  335917393 heartbeat IPC: 0.13757 cumulative IPC: 0.66285 (Simulation time: 0 hr 13 min 16 sec) 
Heartbeat CPU  0 instructions:  272000000 cycles:  337608671 heartbeat IPC: 0.59127 cumulative IPC: 0.66239 (Simulation time: 0 hr 13 min 18 sec) 
Heartbeat CPU  0 instructions:  273000000 cycles:  339176954 heartbeat IPC: 0.63764 cumulative IPC: 0.66224 (Simulation time: 0 hr 13 min 21 sec) 
Heartbeat CPU  0 instructions:  274000001 cycles:  340630108 heartbeat IPC: 0.68816 cumulative IPC: 0.66238 (Simulation time: 0 hr 13 min 23 sec) 
Heartbeat CPU  0 instructions:  275000000 cycles:  342081729 heartbeat IPC: 0.68888 cumulative IPC: 0.66253 (Simulation time: 0 hr 13 min 26 sec) 
Heartbeat CPU  0 instructions:  276000000 cycles:  343710782 heartbeat IPC: 0.61385 cumulative IPC: 0.66223 (Simulation time: 0 hr 13 min 28 sec) 
Heartbeat CPU  0 instructions:  277000000 cycles:  345367413 heartbeat IPC: 0.60363 cumulative IPC: 0.66186 (Simulation time: 0 hr 13 min 30 sec) 
Heartbeat CPU  0 instructions:  278000000 cycles:  346935055 heartbeat IPC: 0.63790 cumulative IPC: 0.66173 (Simulation time: 0 hr 13 min 33 sec) 
Heartbeat CPU  0 instructions:  279000000 cycles:  348387435 heartbeat IPC: 0.68853 cumulative IPC: 0.66187 (Simulation time: 0 hr 13 min 35 sec) 
Heartbeat CPU  0 instructions:  280000000 cycles:  349838680 heartbeat IPC: 0.68906 cumulative IPC: 0.66201 (Simulation time: 0 hr 13 min 38 sec) 
Heartbeat CPU  0 instructions:  281000000 cycles:  351372823 heartbeat IPC: 0.65183 cumulative IPC: 0.66196 (Simulation time: 0 hr 13 min 40 sec) 
Heartbeat CPU  0 instructions:  282000000 cycles:  353035114 heartbeat IPC: 0.60158 cumulative IPC: 0.66159 (Simulation time: 0 hr 13 min 43 sec) 
Heartbeat CPU  0 instructions:  283000001 cycles:  354604573 heartbeat IPC: 0.63716 cumulative IPC: 0.66145 (Simulation time: 0 hr 13 min 45 sec) 
Heartbeat CPU  0 instructions:  284000000 cycles:  356056027 heartbeat IPC: 0.68896 cumulative IPC: 0.66160 (Simulation time: 0 hr 13 min 48 sec) 
Heartbeat CPU  0 instructions:  285000000 cycles:  357507469 heartbeat IPC: 0.68897 cumulative IPC: 0.66174 (Simulation time: 0 hr 13 min 50 sec) 
Heartbeat CPU  0 instructions:  286000002 cycles:  358854951 heartbeat IPC: 0.74213 cumulative IPC: 0.66212 (Simulation time: 0 hr 13 min 52 sec) 
Heartbeat CPU  0 instructions:  287000000 cycles:  360525211 heartbeat IPC: 0.59871 cumulative IPC: 0.66175 (Simulation time: 0 hr 13 min 55 sec) 
Heartbeat CPU  0 instructions:  288000000 cycles:  362086869 heartbeat IPC: 0.64035 cumulative IPC: 0.66163 (Simulation time: 0 hr 13 min 57 sec) 
Heartbeat CPU  0 instructions:  289000001 cycles:  363539946 heartbeat IPC: 0.68820 cumulative IPC: 0.66177 (Simulation time: 0 hr 14 min 0 sec) 
Heartbeat CPU  0 instructions:  290000001 cycles:  364992995 heartbeat IPC: 0.68821 cumulative IPC: 0.66190 (Simulation time: 0 hr 14 min 2 sec) 
Heartbeat CPU  0 instructions:  291000001 cycles:  366272683 heartbeat IPC: 0.78144 cumulative IPC: 0.66243 (Simulation time: 0 hr 14 min 4 sec) 
Heartbeat CPU  0 instructions:  292000000 cycles:  367904267 heartbeat IPC: 0.61290 cumulative IPC: 0.66215 (Simulation time: 0 hr 14 min 7 sec) 
Heartbeat CPU  0 instructions:  293000001 cycles:  369617563 heartbeat IPC: 0.58367 cumulative IPC: 0.66169 (Simulation time: 0 hr 14 min 9 sec) 
Heartbeat CPU  0 instructions:  294000003 cycles:  371330879 heartbeat IPC: 0.58366 cumulative IPC: 0.66124 (Simulation time: 0 hr 14 min 12 sec) 
Heartbeat CPU  0 instructions:  295000003 cycles:  372858515 heartbeat IPC: 0.65461 cumulative IPC: 0.66120 (Simulation time: 0 hr 14 min 14 sec) 
Heartbeat CPU  0 instructions:  296000000 cycles:  374302442 heartbeat IPC: 0.69255 cumulative IPC: 0.66135 (Simulation time: 0 hr 14 min 17 sec) 
Heartbeat CPU  0 instructions:  297000001 cycles:  376018888 heartbeat IPC: 0.58260 cumulative IPC: 0.66090 (Simulation time: 0 hr 14 min 19 sec) 
Heartbeat CPU  0 instructions:  298000002 cycles:  377735160 heartbeat IPC: 0.58266 cumulative IPC: 0.66045 (Simulation time: 0 hr 14 min 22 sec) 
Heartbeat CPU  0 instructions:  299000002 cycles:  379357393 heartbeat IPC: 0.61643 cumulative IPC: 0.66022 (Simulation time: 0 hr 14 min 25 sec) 
Heartbeat CPU  0 instructions:  300000000 cycles:  380529480 heartbeat IPC: 0.85318 cumulative IPC: 0.66096 (Simulation time: 0 hr 14 min 27 sec) 
Heartbeat CPU  0 instructions:  301000000 cycles:  381980981 heartbeat IPC: 0.68894 cumulative IPC: 0.66110 (Simulation time: 0 hr 14 min 29 sec) 
Heartbeat CPU  0 instructions:  302000001 cycles:  383432299 heartbeat IPC: 0.68903 cumulative IPC: 0.66123 (Simulation time: 0 hr 14 min 32 sec) 
Heartbeat CPU  0 instructions:  303000000 cycles:  384883678 heartbeat IPC: 0.68900 cumulative IPC: 0.66136 (Simulation time: 0 hr 14 min 34 sec) 
Heartbeat CPU  0 instructions:  304000000 cycles:  386334981 heartbeat IPC: 0.68904 cumulative IPC: 0.66149 (Simulation time: 0 hr 14 min 36 sec) 
Heartbeat CPU  0 instructions:  305000003 cycles:  387600903 heartbeat IPC: 0.78994 cumulative IPC: 0.66202 (Simulation time: 0 hr 14 min 38 sec) 
Heartbeat CPU  0 instructions:  306000001 cycles:  388947868 heartbeat IPC: 0.74241 cumulative IPC: 0.66237 (Simulation time: 0 hr 14 min 41 sec) 
Heartbeat CPU  0 instructions:  307000001 cycles:  390400955 heartbeat IPC: 0.68819 cumulative IPC: 0.66249 (Simulation time: 0 hr 14 min 43 sec) 
Heartbeat CPU  0 instructions:  308000000 cycles:  391854006 heartbeat IPC: 0.68821 cumulative IPC: 0.66260 (Simulation time: 0 hr 14 min 46 sec) 
Heartbeat CPU  0 instructions:  309000003 cycles:  393307087 heartbeat IPC: 0.68819 cumulative IPC: 0.66272 (Simulation time: 0 hr 14 min 48 sec) 
Heartbeat CPU  0 instructions:  310000002 cycles:  394793338 heartbeat IPC: 0.67283 cumulative IPC: 0.66277 (Simulation time: 0 hr 14 min 50 sec) 
Heartbeat CPU  0 instructions:  311000000 cycles:  398034184 heartbeat IPC: 0.30856 cumulative IPC: 0.65918 (Simulation time: 0 hr 14 min 54 sec) 
Heartbeat CPU  0 instructions:  312000000 cycles:  400667709 heartbeat IPC: 0.37972 cumulative IPC: 0.65690 (Simulation time: 0 hr 14 min 58 sec) 
Heartbeat CPU  0 instructions:  313000002 cycles:  403312643 heartbeat IPC: 0.37808 cumulative IPC: 0.65464 (Simulation time: 0 hr 15 min 2 sec) 
Heartbeat CPU  0 instructions:  314000002 cycles:  405963250 heartbeat IPC: 0.37727 cumulative IPC: 0.65240 (Simulation time: 0 hr 15 min 6 sec) 
Heartbeat CPU  0 instructions:  315000001 cycles:  408596516 heartbeat IPC: 0.37976 cumulative IPC: 0.65022 (Simulation time: 0 hr 15 min 9 sec) 
Heartbeat CPU  0 instructions:  316000000 cycles:  411236330 heartbeat IPC: 0.37881 cumulative IPC: 0.64807 (Simulation time: 0 hr 15 min 13 sec) 
Heartbeat CPU  0 instructions:  317000002 cycles:  413879932 heartbeat IPC: 0.37827 cumulative IPC: 0.64595 (Simulation time: 0 hr 15 min 17 sec) 
Heartbeat CPU  0 instructions:  318000001 cycles:  416508025 heartbeat IPC: 0.38050 cumulative IPC: 0.64389 (Simulation time: 0 hr 15 min 21 sec) 
Heartbeat CPU  0 instructions:  319000003 cycles:  419155806 heartbeat IPC: 0.37768 cumulative IPC: 0.64182 (Simulation time: 0 hr 15 min 25 sec) 
Heartbeat CPU  0 instructions:  320000000 cycles:  421797622 heartbeat IPC: 0.37853 cumulative IPC: 0.63980 (Simulation time: 0 hr 15 min 28 sec) 
Heartbeat CPU  0 instructions:  321000001 cycles:  424442190 heartbeat IPC: 0.37813 cumulative IPC: 0.63780 (Simulation time: 0 hr 15 min 32 sec) 
Heartbeat CPU  0 instructions:  322000000 cycles:  427066378 heartbeat IPC: 0.38107 cumulative IPC: 0.63587 (Simulation time: 0 hr 15 min 36 sec) 
Heartbeat CPU  0 instructions:  323000001 cycles:  429934326 heartbeat IPC: 0.34868 cumulative IPC: 0.63354 (Simulation time: 0 hr 15 min 40 sec) 
Heartbeat CPU  0 instructions:  324000000 cycles:  432572753 heartbeat IPC: 0.37901 cumulative IPC: 0.63164 (Simulation time: 0 hr 15 min 44 sec) 
Heartbeat CPU  0 instructions:  325000003 cycles:  435235953 heartbeat IPC: 0.37549 cumulative IPC: 0.62973 (Simulation time: 0 hr 15 min 48 sec) 
Heartbeat CPU  0 instructions:  326000000 cycles:  437882975 heartbeat IPC: 0.37778 cumulative IPC: 0.62788 (Simulation time: 0 hr 15 min 51 sec) 
Heartbeat CPU  0 instructions:  327000003 cycles:  440529215 heartbeat IPC: 0.37790 cumulative IPC: 0.62605 (Simulation time: 0 hr 15 min 55 sec) 
Heartbeat CPU  0 instructions:  328000000 cycles:  443200297 heartbeat IPC: 0.37438 cumulative IPC: 0.62421 (Simulation time: 0 hr 15 min 59 sec) 
Heartbeat CPU  0 instructions:  329000001 cycles:  445842585 heartbeat IPC: 0.37846 cumulative IPC: 0.62245 (Simulation time: 0 hr 16 min 3 sec) 
Heartbeat CPU  0 instructions:  330000000 cycles:  448491112 heartbeat IPC: 0.37757 cumulative IPC: 0.62070 (Simulation time: 0 hr 16 min 7 sec) 
Heartbeat CPU  0 instructions:  331000003 cycles:  451148146 heartbeat IPC: 0.37636 cumulative IPC: 0.61896 (Simulation time: 0 hr 16 min 10 sec) 
Heartbeat CPU  0 instructions:  332000000 cycles:  453801154 heartbeat IPC: 0.37693 cumulative IPC: 0.61725 (Simulation time: 0 hr 16 min 14 sec) 
Heartbeat CPU  0 instructions:  333000000 cycles:  456439338 heartbeat IPC: 0.37905 cumulative IPC: 0.61559 (Simulation time: 0 hr 16 min 18 sec) 
Heartbeat CPU  0 instructions:  334000002 cycles:  459074469 heartbeat IPC: 0.37949 cumulative IPC: 0.61396 (Simulation time: 0 hr 16 min 22 sec) 
Heartbeat CPU  0 instructions:  335000001 cycles:  461585405 heartbeat IPC: 0.39826 cumulative IPC: 0.61255 (Simulation time: 0 hr 16 min 26 sec) 
Heartbeat CPU  0 instructions:  336000000 cycles:  463094976 heartbeat IPC: 0.66244 cumulative IPC: 0.61274 (Simulation time: 0 hr 16 min 29 sec) 
Heartbeat CPU  0 instructions:  337000002 cycles:  464619079 heartbeat IPC: 0.65612 cumulative IPC: 0.61291 (Simulation time: 0 hr 16 min 32 sec) 
Heartbeat CPU  0 instructions:  338000000 cycles:  466176403 heartbeat IPC: 0.64213 cumulative IPC: 0.61303 (Simulation time: 0 hr 16 min 36 sec) 
Heartbeat CPU  0 instructions:  339000000 cycles:  467701299 heartbeat IPC: 0.65578 cumulative IPC: 0.61320 (Simulation time: 0 hr 16 min 39 sec) 
Heartbeat CPU  0 instructions:  340000000 cycles:  469205216 heartbeat IPC: 0.66493 cumulative IPC: 0.61340 (Simulation time: 0 hr 16 min 43 sec) 
Heartbeat CPU  0 instructions:  341000002 cycles:  470718774 heartbeat IPC: 0.66070 cumulative IPC: 0.61358 (Simulation time: 0 hr 16 min 46 sec) 
Heartbeat CPU  0 instructions:  342000002 cycles:  472227607 heartbeat IPC: 0.66276 cumulative IPC: 0.61377 (Simulation time: 0 hr 16 min 49 sec) 
Heartbeat CPU  0 instructions:  343000003 cycles:  473757970 heartbeat IPC: 0.65344 cumulative IPC: 0.61392 (Simulation time: 0 hr 16 min 53 sec) 
Heartbeat CPU  0 instructions:  344000000 cycles:  475306691 heartbeat IPC: 0.64569 cumulative IPC: 0.61404 (Simulation time: 0 hr 16 min 56 sec) 
Heartbeat CPU  0 instructions:  345000001 cycles:  476854017 heartbeat IPC: 0.64628 cumulative IPC: 0.61417 (Simulation time: 0 hr 17 min 0 sec) 
Heartbeat CPU  0 instructions:  346000002 cycles:  478427537 heartbeat IPC: 0.63552 cumulative IPC: 0.61425 (Simulation time: 0 hr 17 min 3 sec) 
Heartbeat CPU  0 instructions:  347000000 cycles:  480243500 heartbeat IPC: 0.55067 cumulative IPC: 0.61397 (Simulation time: 0 hr 17 min 7 sec) 
Heartbeat CPU  0 instructions:  348000000 cycles:  481743847 heartbeat IPC: 0.66651 cumulative IPC: 0.61416 (Simulation time: 0 hr 17 min 10 sec) 
Heartbeat CPU  0 instructions:  349000001 cycles:  483240039 heartbeat IPC: 0.66836 cumulative IPC: 0.61436 (Simulation time: 0 hr 17 min 13 sec) 
Heartbeat CPU  0 instructions:  350000001 cycles:  484771741 heartbeat IPC: 0.65287 cumulative IPC: 0.61451 (Simulation time: 0 hr 17 min 17 sec) 
Heartbeat CPU  0 instructions:  351000002 cycles:  486319805 heartbeat IPC: 0.64597 cumulative IPC: 0.61463 (Simulation time: 0 hr 17 min 20 sec) 
Heartbeat CPU  0 instructions:  352000000 cycles:  487902744 heartbeat IPC: 0.63174 cumulative IPC: 0.61469 (Simulation time: 0 hr 17 min 24 sec) 
Heartbeat CPU  0 instructions:  353000002 cycles:  489479461 heartbeat IPC: 0.63423 cumulative IPC: 0.61477 (Simulation time: 0 hr 17 min 27 sec) 
Heartbeat CPU  0 instructions:  354000001 cycles:  491042580 heartbeat IPC: 0.63975 cumulative IPC: 0.61486 (Simulation time: 0 hr 17 min 30 sec) 
Heartbeat CPU  0 instructions:  355000002 cycles:  492592914 heartbeat IPC: 0.64502 cumulative IPC: 0.61497 (Simulation time: 0 hr 17 min 34 sec) 
Heartbeat CPU  0 instructions:  356000000 cycles:  494153277 heartbeat IPC: 0.64088 cumulative IPC: 0.61507 (Simulation time: 0 hr 17 min 37 sec) 
Heartbeat CPU  0 instructions:  357000001 cycles:  495713179 heartbeat IPC: 0.64107 cumulative IPC: 0.61517 (Simulation time: 0 hr 17 min 41 sec) 
Heartbeat CPU  0 instructions:  358000003 cycles:  497263659 heartbeat IPC: 0.64496 cumulative IPC: 0.61528 (Simulation time: 0 hr 17 min 44 sec) 
Heartbeat CPU  0 instructions:  359000002 cycles:  498775147 heartbeat IPC: 0.66160 cumulative IPC: 0.61544 (Simulation time: 0 hr 17 min 48 sec) 
Heartbeat CPU  0 instructions:  360000000 cycles:  500272164 heartbeat IPC: 0.66799 cumulative IPC: 0.61563 (Simulation time: 0 hr 17 min 51 sec) 
Heartbeat CPU  0 instructions:  361000000 cycles:  501554640 heartbeat IPC: 0.77974 cumulative IPC: 0.61613 (Simulation time: 0 hr 17 min 54 sec) 
Heartbeat CPU  0 instructions:  362000000 cycles:  502814573 heartbeat IPC: 0.79369 cumulative IPC: 0.61665 (Simulation time: 0 hr 17 min 57 sec) 
Heartbeat CPU  0 instructions:  363000002 cycles:  504070462 heartbeat IPC: 0.79625 cumulative IPC: 0.61718 (Simulation time: 0 hr 18 min 0 sec) 
Heartbeat CPU  0 instructions:  364000000 cycles:  505329186 heartbeat IPC: 0.79445 cumulative IPC: 0.61771 (Simulation time: 0 hr 18 min 3 sec) 
Heartbeat CPU  0 instructions:  365000002 cycles:  506594406 heartbeat IPC: 0.79038 cumulative IPC: 0.61822 (Simulation time: 0 hr 18 min 6 sec) 
Heartbeat CPU  0 instructions:  366000002 cycles:  507851155 heartbeat IPC: 0.79570 cumulative IPC: 0.61873 (Simulation time: 0 hr 18 min 9 sec) 
Heartbeat CPU  0 instructions:  367000001 cycles:  509104343 heartbeat IPC: 0.79796 cumulative IPC: 0.61926 (Simulation time: 0 hr 18 min 13 sec) 
Heartbeat CPU  0 instructions:  368000000 cycles:  510361129 heartbeat IPC: 0.79568 cumulative IPC: 0.61977 (Simulation time: 0 hr 18 min 16 sec) 
Heartbeat CPU  0 instructions:  369000000 cycles:  511616417 heartbeat IPC: 0.79663 cumulative IPC: 0.62028 (Simulation time: 0 hr 18 min 19 sec) 
Heartbeat CPU  0 instructions:  370000003 cycles:  512877562 heartbeat IPC: 0.79293 cumulative IPC: 0.62078 (Simulation time: 0 hr 18 min 22 sec) 
Heartbeat CPU  0 instructions:  371000001 cycles:  514138012 heartbeat IPC: 0.79337 cumulative IPC: 0.62128 (Simulation time: 0 hr 18 min 25 sec) 
Heartbeat CPU  0 instructions:  372000000 cycles:  515395420 heartbeat IPC: 0.79529 cumulative IPC: 0.62178 (Simulation time: 0 hr 18 min 28 sec) 
Heartbeat CPU  0 instructions:  373000003 cycles:  516658024 heartbeat IPC: 0.79202 cumulative IPC: 0.62227 (Simulation time: 0 hr 18 min 31 sec) 
Heartbeat CPU  0 instructions:  374000002 cycles:  517918952 heartbeat IPC: 0.79307 cumulative IPC: 0.62276 (Simulation time: 0 hr 18 min 34 sec) 
Heartbeat CPU  0 instructions:  375000001 cycles:  519410248 heartbeat IPC: 0.67056 cumulative IPC: 0.62292 (Simulation time: 0 hr 18 min 38 sec) 
Heartbeat CPU  0 instructions:  376000000 cycles:  520653765 heartbeat IPC: 0.80417 cumulative IPC: 0.62343 (Simulation time: 0 hr 18 min 41 sec) 
Heartbeat CPU  0 instructions:  377000001 cycles:  521896109 heartbeat IPC: 0.80493 cumulative IPC: 0.62394 (Simulation time: 0 hr 18 min 44 sec) 
Heartbeat CPU  0 instructions:  378000001 cycles:  523133169 heartbeat IPC: 0.80837 cumulative IPC: 0.62445 (Simulation time: 0 hr 18 min 47 sec) 
Heartbeat CPU  0 instructions:  379000001 cycles:  524364587 heartbeat IPC: 0.81207 cumulative IPC: 0.62497 (Simulation time: 0 hr 18 min 50 sec) 
Heartbeat CPU  0 instructions:  380000000 cycles:  525599855 heartbeat IPC: 0.80954 cumulative IPC: 0.62548 (Simulation time: 0 hr 18 min 53 sec) 
Heartbeat CPU  0 instructions:  381000003 cycles:  526828973 heartbeat IPC: 0.81359 cumulative IPC: 0.62599 (Simulation time: 0 hr 18 min 56 sec) 
Heartbeat CPU  0 instructions:  382000003 cycles:  528062024 heartbeat IPC: 0.81100 cumulative IPC: 0.62650 (Simulation time: 0 hr 18 min 59 sec) 
Heartbeat CPU  0 instructions:  383000003 cycles:  529294874 heartbeat IPC: 0.81113 cumulative IPC: 0.62700 (Simulation time: 0 hr 19 min 2 sec) 
Heartbeat CPU  0 instructions:  384000000 cycles:  530529730 heartbeat IPC: 0.80981 cumulative IPC: 0.62750 (Simulation time: 0 hr 19 min 5 sec) 
Heartbeat CPU  0 instructions:  385000003 cycles:  531759724 heartbeat IPC: 0.81301 cumulative IPC: 0.62800 (Simulation time: 0 hr 19 min 9 sec) 
Heartbeat CPU  0 instructions:  386000001 cycles:  532991655 heartbeat IPC: 0.81173 cumulative IPC: 0.62850 (Simulation time: 0 hr 19 min 12 sec) 
Heartbeat CPU  0 instructions:  387000003 cycles:  534221223 heartbeat IPC: 0.81330 cumulative IPC: 0.62900 (Simulation time: 0 hr 19 min 15 sec) 
Heartbeat CPU  0 instructions:  388000000 cycles:  535462486 heartbeat IPC: 0.80563 cumulative IPC: 0.62948 (Simulation time: 0 hr 19 min 18 sec) 
Heartbeat CPU  0 instructions:  389000003 cycles:  536698435 heartbeat IPC: 0.80910 cumulative IPC: 0.62996 (Simulation time: 0 hr 19 min 21 sec) 
Heartbeat CPU  0 instructions:  390000000 cycles:  538514403 heartbeat IPC: 0.55067 cumulative IPC: 0.62965 (Simulation time: 0 hr 19 min 24 sec) 
Heartbeat CPU  0 instructions:  391000003 cycles:  541140431 heartbeat IPC: 0.38080 cumulative IPC: 0.62824 (Simulation time: 0 hr 19 min 28 sec) 
Heartbeat CPU  0 instructions:  392000000 cycles:  543751227 heartbeat IPC: 0.38302 cumulative IPC: 0.62686 (Simulation time: 0 hr 19 min 32 sec) 
Heartbeat CPU  0 instructions:  393000003 cycles:  546357158 heartbeat IPC: 0.38374 cumulative IPC: 0.62551 (Simulation time: 0 hr 19 min 36 sec) 
Heartbeat CPU  0 instructions:  394000002 cycles:  548965305 heartbeat IPC: 0.38341 cumulative IPC: 0.62417 (Simulation time: 0 hr 19 min 40 sec) 
Heartbeat CPU  0 instructions:  395000002 cycles:  551570674 heartbeat IPC: 0.38382 cumulative IPC: 0.62285 (Simulation time: 0 hr 19 min 43 sec) 
Heartbeat CPU  0 instructions:  396000000 cycles:  554176183 heartbeat IPC: 0.38380 cumulative IPC: 0.62154 (Simulation time: 0 hr 19 min 47 sec) 
Heartbeat CPU  0 instructions:  397000002 cycles:  556778809 heartbeat IPC: 0.38423 cumulative IPC: 0.62025 (Simulation time: 0 hr 19 min 51 sec) 
Heartbeat CPU  0 instructions:  398000001 cycles:  559396128 heartbeat IPC: 0.38207 cumulative IPC: 0.61896 (Simulation time: 0 hr 19 min 55 sec) 
Heartbeat CPU  0 instructions:  399000001 cycles:  562009806 heartbeat IPC: 0.38260 cumulative IPC: 0.61768 (Simulation time: 0 hr 19 min 59 sec) 
Heartbeat CPU  0 instructions:  400000000 cycles:  564627429 heartbeat IPC: 0.38203 cumulative IPC: 0.61641 (Simulation time: 0 hr 20 min 3 sec) 
Heartbeat CPU  0 instructions:  401000001 cycles:  567230837 heartbeat IPC: 0.38411 cumulative IPC: 0.61518 (Simulation time: 0 hr 20 min 6 sec) 
Heartbeat CPU  0 instructions:  402000000 cycles:  569953830 heartbeat IPC: 0.36724 cumulative IPC: 0.61381 (Simulation time: 0 hr 20 min 10 sec) 
Heartbeat CPU  0 instructions:  403000000 cycles:  572581787 heartbeat IPC: 0.38052 cumulative IPC: 0.61257 (Simulation time: 0 hr 20 min 14 sec) 
Heartbeat CPU  0 instructions:  404000000 cycles:  575227598 heartbeat IPC: 0.37796 cumulative IPC: 0.61132 (Simulation time: 0 hr 20 min 18 sec) 
Heartbeat CPU  0 instructions:  405000000 cycles:  577860682 heartbeat IPC: 0.37978 cumulative IPC: 0.61010 (Simulation time: 0 hr 20 min 22 sec) 
Heartbeat CPU  0 instructions:  406000000 cycles:  580483099 heartbeat IPC: 0.38133 cumulative IPC: 0.60890 (Simulation time: 0 hr 20 min 26 sec) 
Heartbeat CPU  0 instructions:  407000002 cycles:  583118577 heartbeat IPC: 0.37944 cumulative IPC: 0.60771 (Simulation time: 0 hr 20 min 29 sec) 
Heartbeat CPU  0 instructions:  408000000 cycles:  585750823 heartbeat IPC: 0.37990 cumulative IPC: 0.60653 (Simulation time: 0 hr 20 min 33 sec) 
Heartbeat CPU  0 instructions:  409000002 cycles:  588362527 heartbeat IPC: 0.38289 cumulative IPC: 0.60538 (Simulation time: 0 hr 20 min 37 sec) 
Heartbeat CPU  0 instructions:  410000003 cycles:  590999601 heartbeat IPC: 0.37921 cumulative IPC: 0.60422 (Simulation time: 0 hr 20 min 41 sec) 
Heartbeat CPU  0 instructions:  411000000 cycles:  593622115 heartbeat IPC: 0.38131 cumulative IPC: 0.60309 (Simulation time: 0 hr 20 min 45 sec) 
Heartbeat CPU  0 instructions:  412000000 cycles:  596235415 heartbeat IPC: 0.38266 cumulative IPC: 0.60197 (Simulation time: 0 hr 20 min 49 sec) 
Heartbeat CPU  0 instructions:  413000002 cycles:  598852192 heartbeat IPC: 0.38215 cumulative IPC: 0.60087 (Simulation time: 0 hr 20 min 52 sec) 
Heartbeat CPU  0 instructions:  414000002 cycles:  601566910 heartbeat IPC: 0.36836 cumulative IPC: 0.59966 (Simulation time: 0 hr 20 min 56 sec) 
Heartbeat CPU  0 instructions:  415000000 cycles:  603044495 heartbeat IPC: 0.67678 cumulative IPC: 0.59988 (Simulation time: 0 hr 21 min 0 sec) 
Heartbeat CPU  0 instructions:  416000000 cycles:  604463979 heartbeat IPC: 0.70448 cumulative IPC: 0.60016 (Simulation time: 0 hr 21 min 3 sec) 
Heartbeat CPU  0 instructions:  417000003 cycles:  605876488 heartbeat IPC: 0.70796 cumulative IPC: 0.60045 (Simulation time: 0 hr 21 min 6 sec) 
Heartbeat CPU  0 instructions:  418000000 cycles:  607302889 heartbeat IPC: 0.70106 cumulative IPC: 0.60072 (Simulation time: 0 hr 21 min 9 sec) 
Heartbeat CPU  0 instructions:  419000002 cycles:  608736830 heartbeat IPC: 0.69738 cumulative IPC: 0.60098 (Simulation time: 0 hr 21 min 13 sec) 
Heartbeat CPU  0 instructions:  420000000 cycles:  610164800 heartbeat IPC: 0.70029 cumulative IPC: 0.60125 (Simulation time: 0 hr 21 min 16 sec) 
Heartbeat CPU  0 instructions:  421000000 cycles:  611595446 heartbeat IPC: 0.69898 cumulative IPC: 0.60151 (Simulation time: 0 hr 21 min 19 sec) 
Heartbeat CPU  0 instructions:  422000001 cycles:  613023600 heartbeat IPC: 0.70021 cumulative IPC: 0.60178 (Simulation time: 0 hr 21 min 23 sec) 
Heartbeat CPU  0 instructions:  423000003 cycles:  614447081 heartbeat IPC: 0.70250 cumulative IPC: 0.60204 (Simulation time: 0 hr 21 min 26 sec) 
Heartbeat CPU  0 instructions:  424000000 cycles:  615854533 heartbeat IPC: 0.71050 cumulative IPC: 0.60233 (Simulation time: 0 hr 21 min 29 sec) 
Heartbeat CPU  0 instructions:  425000003 cycles:  617265332 heartbeat IPC: 0.70882 cumulative IPC: 0.60261 (Simulation time: 0 hr 21 min 33 sec) 
Heartbeat CPU  0 instructions:  426000002 cycles:  618670364 heartbeat IPC: 0.71173 cumulative IPC: 0.60289 (Simulation time: 0 hr 21 min 36 sec) 
Heartbeat CPU  0 instructions:  427000003 cycles:  620438982 heartbeat IPC: 0.56541 cumulative IPC: 0.60277 (Simulation time: 0 hr 21 min 39 sec) 
Heartbeat CPU  0 instructions:  428000000 cycles:  621861702 heartbeat IPC: 0.70288 cumulative IPC: 0.60303 (Simulation time: 0 hr 21 min 43 sec) 
Heartbeat CPU  0 instructions:  429000001 cycles:  623272838 heartbeat IPC: 0.70865 cumulative IPC: 0.60330 (Simulation time: 0 hr 21 min 46 sec) 
Heartbeat CPU  0 instructions:  430000003 cycles:  624687710 heartbeat IPC: 0.70678 cumulative IPC: 0.60357 (Simulation time: 0 hr 21 min 49 sec) 
Heartbeat CPU  0 instructions:  431000001 cycles:  626094292 heartbeat IPC: 0.71094 cumulative IPC: 0.60385 (Simulation time: 0 hr 21 min 53 sec) 
Heartbeat CPU  0 instructions:  432000000 cycles:  627516736 heartbeat IPC: 0.70301 cumulative IPC: 0.60410 (Simulation time: 0 hr 21 min 56 sec) 
Heartbeat CPU  0 instructions:  433000001 cycles:  628925821 heartbeat IPC: 0.70968 cumulative IPC: 0.60437 (Simulation time: 0 hr 21 min 59 sec) 
Heartbeat CPU  0 instructions:  434000001 cycles:  630338607 heartbeat IPC: 0.70782 cumulative IPC: 0.60464 (Simulation time: 0 hr 22 min 3 sec) 
Heartbeat CPU  0 instructions:  435000000 cycles:  631760615 heartbeat IPC: 0.70323 cumulative IPC: 0.60489 (Simulation time: 0 hr 22 min 6 sec) 
Heartbeat CPU  0 instructions:  436000000 cycles:  633199074 heartbeat IPC: 0.69519 cumulative IPC: 0.60512 (Simulation time: 0 hr 22 min 9 sec) 
Heartbeat CPU  0 instructions:  437000000 cycles:  634617066 heartbeat IPC: 0.70522 cumulative IPC: 0.60538 (Simulation time: 0 hr 22 min 13 sec) 
Heartbeat CPU  0 instructions:  438000000 cycles:  636022574 heartbeat IPC: 0.71149 cumulative IPC: 0.60565 (Simulation time: 0 hr 22 min 16 sec) 
Heartbeat CPU  0 instructions:  439000002 cycles:  637649185 heartbeat IPC: 0.61478 cumulative IPC: 0.60567 (Simulation time: 0 hr 22 min 19 sec) 
Heartbeat CPU  0 instructions:  440000000 cycles:  638924058 heartbeat IPC: 0.78439 cumulative IPC: 0.60608 (Simulation time: 0 hr 22 min 22 sec) 
Heartbeat CPU  0 instructions:  441000001 cycles:  640179589 heartbeat IPC: 0.79648 cumulative IPC: 0.60650 (Simulation time: 0 hr 22 min 25 sec) 
Heartbeat CPU  0 instructions:  442000002 cycles:  641428771 heartbeat IPC: 0.80052 cumulative IPC: 0.60693 (Simulation time: 0 hr 22 min 29 sec) 
Heartbeat CPU  0 instructions:  443000000 cycles:  642685042 heartbeat IPC: 0.79601 cumulative IPC: 0.60735 (Simulation time: 0 hr 22 min 32 sec) 
Heartbeat CPU  0 instructions:  444000000 cycles:  643945414 heartbeat IPC: 0.79342 cumulative IPC: 0.60777 (Simulation time: 0 hr 22 min 35 sec) 
Heartbeat CPU  0 instructions:  445000000 cycles:  645201809 heartbeat IPC: 0.79593 cumulative IPC: 0.60819 (Simulation time: 0 hr 22 min 38 sec) 
Heartbeat CPU  0 instructions:  446000002 cycles:  646469936 heartbeat IPC: 0.78857 cumulative IPC: 0.60859 (Simulation time: 0 hr 22 min 41 sec) 
Heartbeat CPU  0 instructions:  447000000 cycles:  647723806 heartbeat IPC: 0.79753 cumulative IPC: 0.60900 (Simulation time: 0 hr 22 min 44 sec) 
Heartbeat CPU  0 instructions:  448000000 cycles:  648981198 heartbeat IPC: 0.79530 cumulative IPC: 0.60941 (Simulation time: 0 hr 22 min 47 sec) 
Heartbeat CPU  0 instructions:  449000003 cycles:  650246378 heartbeat IPC: 0.79040 cumulative IPC: 0.60981 (Simulation time: 0 hr 22 min 50 sec) 
Heartbeat CPU  0 instructions:  450000000 cycles:  651517664 heartbeat IPC: 0.78660 cumulative IPC: 0.61021 (Simulation time: 0 hr 22 min 53 sec) 
Heartbeat CPU  0 instructions:  451000001 cycles:  652779565 heartbeat IPC: 0.79246 cumulative IPC: 0.61061 (Simulation time: 0 hr 22 min 57 sec) 
Heartbeat CPU  0 instructions:  452000000 cycles:  654033983 heartbeat IPC: 0.79718 cumulative IPC: 0.61101 (Simulation time: 0 hr 23 min 0 sec) 
Heartbeat CPU  0 instructions:  453000003 cycles:  655290094 heartbeat IPC: 0.79611 cumulative IPC: 0.61142 (Simulation time: 0 hr 23 min 3 sec) 
Heartbeat CPU  0 instructions:  454000001 cycles:  656848252 heartbeat IPC: 0.64178 cumulative IPC: 0.61150 (Simulation time: 0 hr 23 min 6 sec) 
Heartbeat CPU  0 instructions:  455000003 cycles:  658119615 heartbeat IPC: 0.78656 cumulative IPC: 0.61188 (Simulation time: 0 hr 23 min 9 sec) 
Heartbeat CPU  0 instructions:  456000000 cycles:  659360719 heartbeat IPC: 0.80573 cumulative IPC: 0.61229 (Simulation time: 0 hr 23 min 12 sec) 
Heartbeat CPU  0 instructions:  457000001 cycles:  660606885 heartbeat IPC: 0.80246 cumulative IPC: 0.61270 (Simulation time: 0 hr 23 min 15 sec) 
Heartbeat CPU  0 instructions:  458000003 cycles:  661844841 heartbeat IPC: 0.80778 cumulative IPC: 0.61311 (Simulation time: 0 hr 23 min 18 sec) 
Heartbeat CPU  0 instructions:  459000001 cycles:  663084204 heartbeat IPC: 0.80686 cumulative IPC: 0.61353 (Simulation time: 0 hr 23 min 22 sec) 
Heartbeat CPU  0 instructions:  460000000 cycles:  664313473 heartbeat IPC: 0.81349 cumulative IPC: 0.61394 (Simulation time: 0 hr 23 min 25 sec) 
Heartbeat CPU  0 instructions:  461000003 cycles:  665556020 heartbeat IPC: 0.80480 cumulative IPC: 0.61435 (Simulation time: 0 hr 23 min 28 sec) 
Heartbeat CPU  0 instructions:  462000001 cycles:  666799245 heartbeat IPC: 0.80436 cumulative IPC: 0.61475 (Simulation time: 0 hr 23 min 31 sec) 
Heartbeat CPU  0 instructions:  463000001 cycles:  668042262 heartbeat IPC: 0.80449 cumulative IPC: 0.61515 (Simulation time: 0 hr 23 min 34 sec) 
Heartbeat CPU  0 instructions:  464000000 cycles:  669292050 heartbeat IPC: 0.80013 cumulative IPC: 0.61554 (Simulation time: 0 hr 23 min 37 sec) 
Heartbeat CPU  0 instructions:  465000001 cycles:  670535006 heartbeat IPC: 0.80453 cumulative IPC: 0.61594 (Simulation time: 0 hr 23 min 40 sec) 
Heartbeat CPU  0 instructions:  466000003 cycles:  671766880 heartbeat IPC: 0.81177 cumulative IPC: 0.61634 (Simulation time: 0 hr 23 min 43 sec) 
Heartbeat CPU  0 instructions:  467000003 cycles:  673000993 heartbeat IPC: 0.81030 cumulative IPC: 0.61674 (Simulation time: 0 hr 23 min 46 sec) 
Heartbeat CPU  0 instructions:  468000000 cycles:  674242346 heartbeat IPC: 0.80557 cumulative IPC: 0.61714 (Simulation time: 0 hr 23 min 49 sec) 
Heartbeat CPU  0 instructions:  469000002 cycles:  675702875 heartbeat IPC: 0.68468 cumulative IPC: 0.61730 (Simulation time: 0 hr 23 min 53 sec) 
Heartbeat CPU  0 instructions:  470000003 cycles:  678328944 heartbeat IPC: 0.38080 cumulative IPC: 0.61627 (Simulation time: 0 hr 23 min 56 sec) 
Heartbeat CPU  0 instructions:  471000001 cycles:  680898987 heartbeat IPC: 0.38910 cumulative IPC: 0.61530 (Simulation time: 0 hr 24 min 0 sec) 
Heartbeat CPU  0 instructions:  472000000 cycles:  683469790 heartbeat IPC: 0.38898 cumulative IPC: 0.61434 (Simulation time: 0 hr 24 min 4 sec) 
Heartbeat CPU  0 instructions:  473000003 cycles:  686033976 heartbeat IPC: 0.38999 cumulative IPC: 0.61339 (Simulation time: 0 hr 24 min 8 sec) 
Heartbeat CPU  0 instructions:  474000003 cycles:  688610086 heartbeat IPC: 0.38818 cumulative IPC: 0.61244 (Simulation time: 0 hr 24 min 12 sec) 
Heartbeat CPU  0 instructions:  475000002 cycles:  691176472 heartbeat IPC: 0.38965 cumulative IPC: 0.61151 (Simulation time: 0 hr 24 min 16 sec) 
Heartbeat CPU  0 instructions:  476000000 cycles:  693746472 heartbeat IPC: 0.38910 cumulative IPC: 0.61058 (Simulation time: 0 hr 24 min 19 sec) 
Heartbeat CPU  0 instructions:  477000003 cycles:  696303521 heartbeat IPC: 0.39108 cumulative IPC: 0.60967 (Simulation time: 0 hr 24 min 23 sec) 
Heartbeat CPU  0 instructions:  478000000 cycles:  698850499 heartbeat IPC: 0.39262 cumulative IPC: 0.60878 (Simulation time: 0 hr 24 min 27 sec) 
Heartbeat CPU  0 instructions:  479000003 cycles:  701424417 heartbeat IPC: 0.38851 cumulative IPC: 0.60788 (Simulation time: 0 hr 24 min 31 sec) 
Heartbeat CPU  0 instructions:  480000000 cycles:  703983326 heartbeat IPC: 0.39079 cumulative IPC: 0.60699 (Simulation time: 0 hr 24 min 35 sec) 
Heartbeat CPU  0 instructions:  481000001 cycles:  706604763 heartbeat IPC: 0.38147 cumulative IPC: 0.60605 (Simulation time: 0 hr 24 min 38 sec) 
Heartbeat CPU  0 instructions:  482000000 cycles:  709299635 heartbeat IPC: 0.37107 cumulative IPC: 0.60504 (Simulation time: 0 hr 24 min 42 sec) 
Heartbeat CPU  0 instructions:  483000001 cycles:  711909915 heartbeat IPC: 0.38310 cumulative IPC: 0.60413 (Simulation time: 0 hr 24 min 46 sec) 
Heartbeat CPU  0 instructions:  484000000 cycles:  714524540 heartbeat IPC: 0.38246 cumulative IPC: 0.60322 (Simulation time: 0 hr 24 min 50 sec) 
Heartbeat CPU  0 instructions:  485000001 cycles:  717136133 heartbeat IPC: 0.38291 cumulative IPC: 0.60232 (Simulation time: 0 hr 24 min 54 sec) 
Heartbeat CPU  0 instructions:  486000002 cycles:  719746719 heartbeat IPC: 0.38306 cumulative IPC: 0.60143 (Simulation time: 0 hr 24 min 58 sec) 
Heartbeat CPU  0 instructions:  487000003 cycles:  722357263 heartbeat IPC: 0.38306 cumulative IPC: 0.60054 (Simulation time: 0 hr 25 min 2 sec) 
Heartbeat CPU  0 instructions:  488000000 cycles:  724966180 heartbeat IPC: 0.38330 cumulative IPC: 0.59967 (Simulation time: 0 hr 25 min 5 sec) 
Heartbeat CPU  0 instructions:  489000002 cycles:  727576601 heartbeat IPC: 0.38308 cumulative IPC: 0.59880 (Simulation time: 0 hr 25 min 9 sec) 
Heartbeat CPU  0 instructions:  490000003 cycles:  730183507 heartbeat IPC: 0.38360 cumulative IPC: 0.59794 (Simulation time: 0 hr 25 min 13 sec) 
Heartbeat CPU  0 instructions:  491000003 cycles:  732790243 heartbeat IPC: 0.38362 cumulative IPC: 0.59708 (Simulation time: 0 hr 25 min 17 sec) 
Heartbeat CPU  0 instructions:  492000000 cycles:  735391886 heartbeat IPC: 0.38437 cumulative IPC: 0.59624 (Simulation time: 0 hr 25 min 21 sec) 
Heartbeat CPU  0 instructions:  493000002 cycles:  737960785 heartbeat IPC: 0.38927 cumulative IPC: 0.59544 (Simulation time: 0 hr 25 min 24 sec) 
Heartbeat CPU  0 instructions:  494000002 cycles:  739871003 heartbeat IPC: 0.52350 cumulative IPC: 0.59523 (Simulation time: 0 hr 25 min 28 sec) 
Heartbeat CPU  0 instructions:  495000000 cycles:  741334326 heartbeat IPC: 0.68337 cumulative IPC: 0.59542 (Simulation time: 0 hr 25 min 31 sec) 
Heartbeat CPU  0 instructions:  496000000 cycles:  742800265 heartbeat IPC: 0.68216 cumulative IPC: 0.59561 (Simulation time: 0 hr 25 min 35 sec) 
Heartbeat CPU  0 instructions:  497000000 cycles:  744260475 heartbeat IPC: 0.68483 cumulative IPC: 0.59581 (Simulation time: 0 hr 25 min 38 sec) 
Heartbeat CPU  0 instructions:  498000002 cycles:  745713014 heartbeat IPC: 0.68845 cumulative IPC: 0.59601 (Simulation time: 0 hr 25 min 41 sec) 
Heartbeat CPU  0 instructions:  499000002 cycles:  747150434 heartbeat IPC: 0.69569 cumulative IPC: 0.59623 (Simulation time: 0 hr 25 min 45 sec) 
Heartbeat CPU  0 instructions:  500000000 cycles:  748581293 heartbeat IPC: 0.69888 cumulative IPC: 0.59645 (Simulation time: 0 hr 25 min 48 sec) 
Heartbeat CPU  0 instructions:  501000000 cycles:  750011023 heartbeat IPC: 0.69943 cumulative IPC: 0.59666 (Simulation time: 0 hr 25 min 51 sec) 
Heartbeat CPU  0 instructions:  502000001 cycles:  751459611 heartbeat IPC: 0.69033 cumulative IPC: 0.59687 (Simulation time: 0 hr 25 min 54 sec) 
Heartbeat CPU  0 instructions:  503000000 cycles:  752914190 heartbeat IPC: 0.68748 cumulative IPC: 0.59706 (Simulation time: 0 hr 25 min 58 sec) 
Heartbeat CPU  0 instructions:  504000000 cycles:  754373967 heartbeat IPC: 0.68504 cumulative IPC: 0.59725 (Simulation time: 0 hr 26 min 1 sec) 
Heartbeat CPU  0 instructions:  505000000 cycles:  755840459 heartbeat IPC: 0.68190 cumulative IPC: 0.59743 (Simulation time: 0 hr 26 min 4 sec) 
Heartbeat CPU  0 instructions:  506000001 cycles:  757646930 heartbeat IPC: 0.55357 cumulative IPC: 0.59732 (Simulation time: 0 hr 26 min 8 sec) 
Heartbeat CPU  0 instructions:  507000002 cycles:  759087529 heartbeat IPC: 0.69416 cumulative IPC: 0.59752 (Simulation time: 0 hr 26 min 11 sec) 
Heartbeat CPU  0 instructions:  508000000 cycles:  760532442 heartbeat IPC: 0.69208 cumulative IPC: 0.59772 (Simulation time: 0 hr 26 min 14 sec) 
Heartbeat CPU  0 instructions:  509000000 cycles:  761981971 heartbeat IPC: 0.68988 cumulative IPC: 0.59792 (Simulation time: 0 hr 26 min 18 sec) 
Heartbeat CPU  0 instructions:  510000001 cycles:  763450575 heartbeat IPC: 0.68092 cumulative IPC: 0.59810 (Simulation time: 0 hr 26 min 21 sec) 
Heartbeat CPU  0 instructions:  511000002 cycles:  764908548 heartbeat IPC: 0.68588 cumulative IPC: 0.59828 (Simulation time: 0 hr 26 min 24 sec) 
Heartbeat CPU  0 instructions:  512000000 cycles:  766368012 heartbeat IPC: 0.68518 cumulative IPC: 0.59847 (Simulation time: 0 hr 26 min 28 sec) 
[...]
scooby_state_443039|14|4 1,0,0,0,0,0,0,0,0,0,0,0,0,0,0,1,
scooby_state_445681|47|41 1,0,0,0,0,0,0,0,0,0,0,0,0,0,0,1,
scooby_state_443a1d|59|50 1,0,0,0,0,0,0,0,0,0,0,0,0,0,0,1,
scooby_state_443a1d|56|43 1,0,0,0,0,0,0,0,0,0,0,0,0,0,0,1,
scooby_state_443b81|47|30 1,0,0,0,0,0,0,0,0,0,0,0,0,0,0,1,
scooby_state_444464|30|0 1,0,0,0,0,0,0,0,0,0,0,0,0,0,0,1,
scooby_state_442d99|41|30 1,0,0,0,0,0,0,0,0,0,0,0,0,0,0,1,
scooby_state_444405|6|-10 1,0,0,0,0,0,0,0,0,0,0,0,0,0,0,1,
scooby_state_4443e7|38|0 1,0,0,0,0,0,0,0,0,0,0,0,0,0,0,1,
scooby_state_4443e7|34|0 1,0,0,0,0,0,0,0,0,0,0,0,0,0,0,1,
scooby_state_415fcb|63|1 1,0,0,0,0,0,0,0,0,0,0,0,0,0,0,1,
scooby_state_482701|28|1 1,0,0,0,0,0,0,0,0,0,0,0,0,0,0,1,
scooby_state_4442e1|54|8 1,0,0,0,0,0,0,0,0,0,0,0,0,0,0,1,
scooby_state_444578|43|38 1,0,0,0,0,0,0,0,0,0,0,0,0,0,0,1,
scooby_state_443b31|31|7 1,0,0,0,0,0,0,0,0,0,0,0,0,0,0,1,
scooby_state_4442b6|39|-1 1,0,0,0,0,0,0,0,0,0,0,0,0,0,0,1,
scooby_state_4443e7|43|0 1,0,0,0,0,0,0,0,0,0,0,0,0,0,0,1,
scooby_state_443a1d|2|-33 1,0,0,0,0,0,0,0,0,0,0,0,0,0,0,1,
scooby_state_44551d|15|6 1,0,0,0,0,0,0,0,0,0,0,0,0,0,0,1,
scooby_state_444419|54|25 1,0,0,0,0,0,0,0,0,0,0,0,0,0,0,1,
scooby_state_442a5d|38|3 1,0,0,0,0,0,0,0,0,0,0,0,0,0,0,1,
scooby_state_445681|48|44 1,0,0,0,0,0,0,0,0,0,0,0,0,0,0,1,
scooby_state_4443be|32|-22 1,0,0,0,0,0,0,0,0,0,0,0,0,0,0,1,
scooby_state_4442c6|63|32 1,0,0,0,0,0,0,0,0,0,0,0,0,0,0,1,
scooby_state_442db1|10|-29 1,0,0,0,0,0,0,0,0,0,0,0,0,0,0,1,
scooby_state_444464|63|32 1,0,0,0,0,0,0,0,0,0,0,0,0,0,0,1,
scooby_state_445681|31|22 1,0,0,0,0,0,0,0,0,0,0,0,0,0,0,1,
scooby_state_443c27|37|0 1,0,0,0,0,0,0,0,0,0,0,0,0,0,0,1,
scooby_state_437283|10|1 1,0,0,0,0,0,0,0,0,0,0,0,0,0,0,1,
scooby_state_442dbd|48|4 1,0,0,0,0,0,0,0,0,0,0,0,0,0,0,1,
scooby_state_444578|51|46 1,0,0,0,0,0,0,0,0,0,0,0,0,0,0,1,
scooby_state_417c80|50|1 1,0,0,0,0,0,0,0,0,0,0,0,0,0,0,1,
scooby_state_417ba2|47|0 1,0,0,0,0,0,0,0,0,0,0,0,0,0,0,1,
scooby_state_4362c3|11|1 1,0,0,0,0,0,0,0,0,0,0,0,0,0,0,1,
scooby_state_4453ed|48|2 1,0,0,0,0,0,0,0,0,0,0,0,0,0,0,1,
scooby_state_44557c|41|31 1,0,0,0,0,0,0,0,0,0,0,0,0,0,0,1,
scooby_state_442dbd|30|4 1,0,0,0,0,0,0,0,0,0,0,0,0,0,0,1,
scooby_state_4445e8|42|0 1,0,0,0,0,0,0,0,0,0,0,0,0,0,0,1,
scooby_state_443946|51|24 1,0,0,0,0,0,0,0,0,0,0,0,0,0,0,1,
scooby_state_4442c6|23|0 1,0,0,0,0,0,0,0,0,0,0,0,0,0,0,1,
scooby_state_44341a|59|4 1,0,0,0,0,0,0,0,0,0,0,0,0,0,0,1,
scooby_state_4442e8|23|0 1,0,0,0,0,0,0,0,0,0,0,0,0,0,0,1,
scooby_state_444519|16|-8 1,0,0,0,0,0,0,0,0,0,0,0,0,0,0,1,
scooby_state_437f0d|7|0 0,0,0,0,0,0,0,0,0,0,0,1,0,0,0,1,
scooby_state_44468c|35|0 1,0,0,0,0,0,0,0,0,0,0,0,0,0,0,1,
scooby_state_4445e8|58|0 1,0,0,0,0,0,0,0,0,0,0,0,0,0,0,1,
scooby_state_443123|17|4 1,0,0,0,0,0,0,0,0,0,0,0,0,0,0,1,
scooby_state_44557c|9|0 1,0,0,0,0,0,0,0,0,0,0,0,0,0,0,1,
scooby_state_4442c6|47|32 1,0,0,0,0,0,0,0,0,0,0,0,0,0,0,1,
scooby_state_4442e1|62|0 1,0,0,0,0,0,0,0,0,0,0,0,0,0,0,1,
scooby_state_444578|37|-23 1,0,0,0,0,0,0,0,0,0,0,0,0,0,0,1,
scooby_state_4432fd|62|1 1,0,0,0,0,0,0,0,0,0,0,0,0,0,0,1,
scooby_state_4374cf|49|0 0,0,0,0,0,0,0,0,0,0,0,0,1,0,0,1,
scooby_state_44557c|34|31 1,0,0,0,0,0,0,0,0,0,0,0,0,0,0,1,
scooby_state_445382|14|1 1,0,0,0,0,0,0,0,0,0,0,0,0,0,0,1,
scooby_state_4442c6|27|0 1,0,0,0,0,0,0,0,0,0,0,0,0,0,0,1,
scooby_state_445700|53|7 1,0,0,0,0,0,0,0,0,0,0,0,0,0,0,1,
scooby_state_443ac9|59|43 1,0,0,0,0,0,0,0,0,0,0,0,0,0,0,1,
scooby_state_4351d2|40|0 1,0,0,0,0,0,0,0,0,0,0,0,0,0,0,1,
scooby_state_444464|27|0 1,0,0,0,0,0,0,0,0,0,0,0,0,0,0,1,
scooby_state_4456fb|32|0 1,0,0,0,0,0,0,0,0,0,0,0,0,0,0,1,
scooby_state_4351d2|41|0 1,0,0,0,0,0,0,0,0,0,0,0,0,0,0,1,
scooby_state_44460f|50|4 1,0,0,0,0,0,0,0,0,0,0,0,0,0,0,1,
scooby_state_4443be|50|4 1,0,0,0,0,0,0,0,0,0,0,0,0,0,0,1,
scooby_state_444346|13|1 1,0,0,0,0,0,0,0,0,0,0,0,0,0,0,1,
scooby_state_4368b0|15|-2 0,0,0,0,0,0,0,0,0,0,0,0,1,0,0,1,
scooby_state_44551d|2|-25 1,0,0,0,0,0,0,0,0,0,0,0,0,0,0,1,
scooby_state_44467d|47|0 1,0,0,0,0,0,0,0,0,0,0,0,0,0,0,1,
scooby_state_445441|8|0 1,0,0,0,0,0,0,0,0,0,0,0,0,0,0,1,
scooby_state_443c00|56|-7 1,0,0,0,0,0,0,0,0,0,0,0,0,0,0,1,
scooby_state_442e86|45|3 1,0,0,0,0,0,0,0,0,0,0,0,0,0,0,1,
scooby_state_444519|29|5 1,0,0,0,0,0,0,0,0,0,0,0,0,0,0,1,
scooby_state_401f39|60|11 1,0,0,0,0,0,0,0,0,0,0,0,0,0,0,1,
scooby_state_444464|49|0 1,0,0,0,0,0,0,0,0,0,0,0,0,0,0,1,
scooby_state_44451f|47|0 1,0,0,0,0,0,0,0,0,0,0,0,0,0,0,1,
scooby_state_442db1|54|0 1,0,0,0,0,0,0,0,0,0,0,0,0,0,0,1,
scooby_state_442da5|43|4 1,0,0,0,0,0,0,0,0,0,0,0,0,0,0,1,
scooby_state_442dbd|12|4 1,0,0,0,0,0,0,0,0,0,0,0,0,0,0,1,
scooby_state_444519|38|5 1,0,0,0,0,0,0,0,0,0,0,0,0,0,0,1,
scooby_state_44395e|29|0 1,0,0,0,0,0,0,0,0,0,0,0,0,0,0,1,
scooby_state_4439ff|58|0 1,0,0,0,0,0,0,0,0,0,0,0,0,0,0,1,
scooby_state_44441f|63|0 1,0,0,0,0,0,0,0,0,0,0,0,0,0,0,1,
scooby_state_442e0a|0|0 1,0,0,0,0,0,0,0,0,0,0,0,0,0,0,1,
scooby_state_419351|4|-4 1,0,0,0,0,0,0,0,0,0,0,0,0,0,0,1,
scooby_state_442c83|50|0 1,0,0,0,0,0,0,0,0,0,0,0,0,0,0,1,
scooby_state_444519|26|2 1,0,0,0,0,0,0,0,0,0,0,0,0,0,0,1,
scooby_state_4442c6|52|0 1,0,0,0,0,0,0,0,0,0,0,0,0,0,0,1,
scooby_state_4442e1|63|6 1,0,0,0,0,0,0,0,0,0,0,0,0,0,0,1,
scooby_state_444464|56|0 1,0,0,0,0,0,0,0,0,0,0,0,0,0,0,1,
scooby_state_445657|3|-54 1,0,0,0,0,0,0,0,0,0,0,0,0,0,0,1,
scooby_state_4442e8|56|0 1,0,0,0,0,0,0,0,0,0,0,0,0,0,0,1,
scooby_state_4445e8|52|0 1,0,0,0,0,0,0,0,0,0,0,0,0,0,0,1,
scooby_state_444405|57|7 1,0,0,0,0,0,0,0,0,0,0,0,0,0,0,1,
scooby_state_445690|37|31 1,0,0,0,0,0,0,0,0,0,0,0,0,0,0,1,
scooby_state_437f0d|37|0 1,0,0,0,0,0,0,0,0,0,0,0,0,0,0,1,
scooby_state_44316e|37|1 1,0,0,0,0,0,0,0,0,0,0,0,0,0,0,1,
scooby_state_443329|28|-1 1,0,0,0,0,0,0,0,0,0,0,0,0,0,0,1,
scooby_state_4442cc|56|0 1,0,0,0,0,0,0,0,0,0,0,0,0,0,0,1,
scooby_state_44449e|56|0 1,0,0,0,0,0,0,0,0,0,0,0,0,0,0,1,
scooby_state_442db1|1|-29 1,0,0,0,0,0,0,0,0,0,0,0,0,0,0,1,
scooby_state_443946|49|11 1,0,0,0,0,0,0,0,0,0,0,0,0,0,0,1,
scooby_state_4442e8|31|0 1,0,0,0,0,0,0,0,0,0,0,0,0,0,0,1,
scooby_state_445984|38|1 1,0,0,0,0,0,0,0,0,0,0,0,0,0,0,1,
scooby_state_444519|13|-8 1,0,0,0,0,0,0,0,0,0,0,0,0,0,0,1,
scooby_state_4443e7|20|0 1,0,0,0,0,0,0,0,0,0,0,0,0,0,0,1,
scooby_state_445637|21|0 1,0,0,0,0,0,0,0,0,0,0,0,0,0,0,1,
scooby_state_443a69|35|0 1,0,0,0,0,0,0,0,0,0,0,0,0,0,0,1,
scooby_state_4438f9|8|1 1,0,0,0,0,0,0,0,0,0,0,0,0,0,0,1,
scooby_state_44432e|5|-26 1,0,0,0,0,0,0,0,0,0,0,0,0,0,0,1,
scooby_state_443bfb|38|0 1,0,0,0,0,0,0,0,0,0,0,0,0,0,0,1,
scooby_state_4446d6|63|57 1,0,0,0,0,0,0,0,0,0,0,0,0,0,0,1,
scooby_state_4362b5|33|0 1,0,0,0,0,0,0,0,0,0,0,0,0,0,0,1,
scooby_state_4442c6|38|0 1,0,0,0,0,0,0,0,0,0,0,0,0,0,0,1,
scooby_state_444464|46|33 1,0,0,0,0,0,0,0,0,0,0,0,0,0,0,1,
scooby_state_44551d|56|49 1,0,0,0,0,0,0,0,0,0,0,0,0,0,0,1,
scooby_state_4453dd|61|33 1,0,0,0,0,0,0,0,0,0,0,0,0,0,0,1,
scooby_state_4445e8|54|7 1,0,0,0,0,0,0,0,0,0,0,0,0,0,0,1,
scooby_state_4442e1|49|0 1,0,0,0,0,0,0,0,0,0,0,0,0,0,0,1,
scooby_state_4445e8|50|3 1,0,0,0,0,0,0,0,0,0,0,0,0,0,0,1,
scooby_state_444405|0|-9 1,0,0,0,0,0,0,0,0,0,0,0,0,0,0,1,
scooby_state_435623|39|0 0,0,0,0,0,0,0,0,1,0,0,0,0,0,0,1,
scooby_state_442a81|25|3 1,0,0,0,0,0,0,0,0,0,0,0,0,0,0,1,
scooby_state_442d99|36|30 1,0,0,0,0,0,0,0,0,0,0,0,0,0,0,1,
scooby_state_443050|52|4 1,0,0,0,0,0,0,0,0,0,0,0,0,0,0,1,
scooby_state_443b31|16|-45 1,0,0,0,0,0,0,0,0,0,0,0,0,0,0,1,
scooby_state_4442cc|49|0 1,0,0,0,0,0,0,0,0,0,0,0,0,0,0,1,
scooby_state_4442c6|25|0 1,0,0,0,0,0,0,0,0,0,0,0,0,0,0,1,
scooby_state_44449e|49|0 1,0,0,0,0,0,0,0,0,0,0,0,0,0,0,1,
scooby_state_44431a|48|0 1,0,0,0,0,0,0,0,0,0,0,0,0,0,0,1,
scooby_state_442a69|3|-29 1,0,0,0,0,0,0,0,0,0,0,0,0,0,0,1,
scooby_state_444451|63|32 1,0,0,0,0,0,0,0,0,0,0,0,0,0,0,1,
scooby_state_443b31|33|-4 1,0,0,0,0,0,0,0,0,0,0,0,0,0,0,1,
scooby_state_443bfb|7|0 1,0,0,0,0,0,0,0,0,0,0,0,0,0,0,1,
scooby_state_436501|20|1 1,0,0,0,0,0,0,0,0,0,0,0,0,0,0,1,
scooby_state_4443be|53|13 1,0,0,0,0,0,0,0,0,0,0,0,0,0,0,1,
scooby_state_443a1d|63|58 1,0,0,0,0,0,0,0,0,0,0,0,0,0,0,1,
scooby_state_4442cc|45|0 1,0,0,0,0,0,0,0,0,0,0,0,0,0,0,1,
scooby_state_44451f|20|0 1,0,0,0,0,0,0,0,0,0,0,0,0,0,0,1,
scooby_state_44451f|29|0 1,0,0,0,0,0,0,0,0,0,0,0,0,0,0,1,
scooby_state_4453dd|20|0 1,0,0,0,0,0,0,0,0,0,0,0,0,0,0,1,
scooby_state_444806|32|23 1,0,0,0,0,0,0,0,0,0,0,0,0,0,0,1,
scooby_state_4445e8|35|2 1,0,0,0,0,0,0,0,0,0,0,0,0,0,0,1,
scooby_state_438347|13|1 1,0,0,0,0,0,0,0,0,0,0,0,0,0,0,1,
scooby_state_4442c6|6|0 1,0,0,0,0,0,0,0,0,0,0,0,0,0,0,1,
scooby_state_443044|34|4 1,0,0,0,0,0,0,0,0,0,0,0,0,0,0,1,
scooby_state_44449e|9|0 1,0,0,0,0,0,0,0,0,0,0,0,0,0,0,1,
scooby_state_4442c6|35|32 1,0,0,0,0,0,0,0,0,0,0,0,0,0,0,1,
scooby_state_4456c6|26|0 1,0,0,0,0,0,0,0,0,0,0,0,0,0,0,1,
scooby_state_44460f|37|-12 1,0,0,0,0,0,0,0,0,0,0,0,0,0,0,1,
scooby_state_444519|30|5 1,0,0,0,0,0,0,0,0,0,0,0,0,0,0,1,
scooby_state_44551d|1|-15 1,0,0,0,0,0,0,0,0,0,0,0,0,0,0,1,
scooby_state_442db1|5|-29 1,0,0,0,0,0,0,0,0,0,0,0,0,0,0,1,
scooby_state_443b90|59|12 1,0,0,0,0,0,0,0,0,0,0,0,0,0,0,1,
scooby_state_43b39b|10|0 1,0,0,0,0,0,0,0,0,0,0,0,0,0,0,1,
scooby_state_44559f|10|0 1,0,0,0,0,0,0,0,0,0,0,0,0,0,0,1,
scooby_state_41939d|5|1 1,0,0,0,0,0,0,0,0,0,0,0,0,0,0,1,
scooby_state_4456c6|61|0 1,0,0,0,0,0,0,0,0,0,0,0,0,0,0,1,
scooby_state_4456c6|25|4 1,0,0,0,0,0,0,0,0,0,0,0,0,0,0,1,
scooby_state_4445e8|56|6 1,0,0,0,0,0,0,0,0,0,0,0,0,0,0,1,
scooby_state_442d99|40|30 1,0,0,0,0,0,0,0,0,0,0,0,0,0,0,1,
scooby_state_4442cc|38|0 1,0,0,0,0,0,0,0,0,0,0,0,0,0,0,1,
scooby_state_445700|44|2 1,0,0,0,0,0,0,0,0,0,0,0,0,0,0,1,
scooby_state_445631|32|13 1,0,0,0,0,0,0,0,0,0,0,0,0,0,0,1,
scooby_state_4442cc|13|0 1,0,0,0,0,0,0,0,0,0,0,0,0,0,0,1,
scooby_state_4442e1|44|0 1,0,0,0,0,0,0,0,0,0,0,0,0,0,0,1,
scooby_state_4442e8|9|0 1,0,0,0,0,0,0,0,0,0,0,0,0,0,0,1,
scooby_state_416b80|46|0 1,0,0,0,0,0,0,0,0,0,0,0,0,0,0,1,
scooby_state_4443e7|45|0 1,0,0,0,0,0,0,0,0,0,0,0,0,0,0,1,
scooby_state_44469d|53|29 1,0,0,0,0,0,0,0,0,0,0,0,0,0,0,1,
scooby_state_4445e8|9|-30 1,0,0,0,0,0,0,0,0,0,0,0,0,0,0,1,
scooby_state_44467d|62|0 1,0,0,0,0,0,0,0,0,0,0,0,0,0,0,1,
scooby_state_443039|9|4 1,0,0,0,0,0,0,0,0,0,0,0,0,0,0,1,
scooby_state_442a81|49|30 1,0,0,0,0,0,0,0,0,0,0,0,0,0,0,1,
scooby_state_4442e1|40|5 1,0,0,0,0,0,0,0,0,0,0,0,0,0,0,1,
scooby_state_4439d6|53|2 1,0,0,0,0,0,0,0,0,0,0,0,0,0,0,1,
scooby_state_443144|17|1 1,0,0,0,0,0,0,0,0,0,0,0,0,0,0,1,
scooby_state_4445e8|49|2 1,0,0,0,0,0,0,0,0,0,0,0,0,0,0,1,
scooby_state_444519|39|5 1,0,0,0,0,0,0,0,0,0,0,0,0,0,0,1,
scooby_state_445700|6|0 1,0,0,0,0,0,0,0,0,0,0,0,0,0,0,1,
scooby_state_443cc1|51|1 1,0,0,0,0,0,0,0,0,0,0,0,0,0,0,1,
scooby_state_442a81|55|30 1,0,0,0,0,0,0,0,0,0,0,0,0,0,0,1,
scooby_state_443946|60|46 1,0,0,0,0,0,0,0,0,0,0,0,0,0,0,1,
scooby_state_443b90|39|-17 1,0,0,0,0,0,0,0,0,0,0,0,0,0,0,1,
scooby_state_442a69|22|-29 1,0,0,0,0,0,0,0,0,0,0,0,0,0,0,1,
scooby_state_4443be|39|5 1,0,0,0,0,0,0,0,0,0,0,0,0,0,0,1,
scooby_state_444519|34|4 1,0,0,0,0,0,0,0,0,0,0,0,0,0,0,1,
scooby_state_4453ed|54|4 1,0,0,0,0,0,0,0,0,0,0,0,0,0,0,1,
scooby_state_44451f|37|0 1,0,0,0,0,0,0,0,0,0,0,0,0,0,0,1,
scooby_state_445727|38|-1 1,0,0,0,0,0,0,0,0,0,0,0,0,0,0,1,
scooby_state_443a1d|59|-2 1,0,0,0,0,0,0,0,0,0,0,0,0,0,0,1,
scooby_state_4446c7|13|0 1,0,0,0,0,0,0,0,0,0,0,0,0,0,0,1,
scooby_state_442e86|25|3 1,0,0,0,0,0,0,0,0,0,0,0,0,0,0,1,
scooby_state_4a3a40|41|1 1,0,0,0,0,0,0,0,0,0,0,0,0,0,0,1,
scooby_state_444578|62|4 1,0,0,0,0,0,0,0,0,0,0,0,0,0,0,1,
scooby_state_4438f9|2|-30 1,0,0,0,0,0,0,0,0,0,0,0,0,0,0,1,
scooby_state_4445e3|52|0 1,0,0,0,0,0,0,0,0,0,0,0,0,0,0,1,
scooby_state_4442cc|6|0 1,0,0,0,0,0,0,0,0,0,0,0,0,0,0,1,
scooby_state_4445e8|37|0 1,0,0,0,0,0,0,0,0,0,0,0,0,0,0,1,
scooby_state_4431c4|7|1 1,0,0,0,0,0,0,0,0,0,0,0,0,0,0,1,
scooby_state_44467d|44|0 1,0,0,0,0,0,0,0,0,0,0,0,0,0,0,1,
scooby_state_4443e7|53|0 1,0,0,0,0,0,0,0,0,0,0,0,0,0,0,1,
scooby_state_442dbd|47|3 1,0,0,0,0,0,0,0,0,0,0,0,0,0,0,1,
scooby_state_4438de|15|0 1,0,0,0,0,0,0,0,0,0,0,0,0,0,0,1,
scooby_state_44551d|1|-43 1,0,0,0,0,0,0,0,0,0,0,0,0,0,0,1,
scooby_state_443b90|43|4 1,0,0,0,0,0,0,0,0,0,0,0,0,0,0,1,
scooby_state_444578|37|-12 1,0,0,0,0,0,0,0,0,0,0,0,0,0,0,1,
scooby_state_415844|12|2 1,0,0,0,0,0,0,0,0,0,0,0,0,0,0,1,
scooby_state_4453dd|45|33 1,0,0,0,0,0,0,0,0,0,0,0,0,0,0,1,
scooby_state_444405|56|7 1,0,0,0,0,0,0,0,0,0,0,0,0,0,0,1,
scooby_state_445637|12|0 1,0,0,0,0,0,0,0,0,0,0,0,0,0,0,1,
scooby_state_4442c6|63|0 1,0,0,0,0,0,0,0,0,0,0,0,0,0,0,1,
scooby_state_444464|63|0 1,0,0,0,0,0,0,0,0,0,0,0,0,0,0,1,
scooby_state_445428|46|9 1,0,0,0,0,0,0,0,0,0,0,0,0,0,0,1,

scooby_action_0_deg_dist 0,69625,0,0,0,0,0,0,0,0,0,0,0,0,0,0,
scooby_action_22_deg_dist 0,47089,265,0,5,0,0,0,0,0,0,0,0,0,0,0,
scooby_action_3_deg_dist 0,12819,674,0,1607,0,9435,0,0,0,0,0,0,0,0,0,
scooby_action_32_deg_dist 0,7720,6,0,0,0,0,0,0,0,0,0,0,0,0,0,
scooby_action_5_deg_dist 0,10120,42,0,22,0,2,0,0,0,0,0,0,0,0,0,
scooby_action_4_deg_dist 0,10323,29,0,28,0,2,0,0,0,0,0,0,0,0,0,
scooby_action_1_deg_dist 0,3366777,143017,0,272830,0,2511907,0,0,0,0,0,0,0,0,0,
scooby_action_30_deg_dist 0,110158,9,0,0,0,0,0,0,0,0,0,0,0,0,0,
scooby_action_-3_deg_dist 0,38597,13808,0,31890,0,195978,0,0,0,0,0,0,0,0,0,
scooby_action_10_deg_dist 0,9938,30,0,16,0,1,0,0,0,0,0,0,0,0,0,
scooby_action_-1_deg_dist 0,67221,20939,0,52780,0,319319,0,0,0,0,0,0,0,0,0,
scooby_action_23_deg_dist 0,3328009,327228,0,75,0,101,0,0,0,0,0,0,0,0,0,
scooby_action_-6_deg_dist 0,24686,6740,0,16409,0,114605,0,0,0,0,0,0,0,0,0,
scooby_action_11_deg_dist 0,1059599,570509,0,173867,0,50,0,0,0,0,0,0,0,0,0,
scooby_action_12_deg_dist 0,10717,64,0,20,0,3,0,0,0,0,0,0,0,0,0,

scooby_track_called 12957710
scooby_track_same_address 251078
scooby_track_evict 12706376

scooby_reward_demand_called 12957710
scooby_reward_demand_pt_not_found 6546783
scooby_reward_demand_pt_found 6410927
scooby_reward_demand_pt_found_total 6410927
scooby_reward_demand_has_reward 2802
scooby_reward_train_called 4579100
scooby_reward_assign_reward_called 12706436
scooby_reward_no_pref 69623
scooby_reward_incorrect 4509477
scooby_reward_correct_untimely 4952413
scooby_reward_correct_timely 1455712
scooby_reward_out_of_bounds 1719211
scooby_reward_tracker_hit 0

scooby_reward_none_low_bw 69623
scooby_reward_none_high_bw 0
scooby_reward_incorrect_low_bw 4509477
scooby_reward_incorrect_high_bw 0
scooby_reward_correct_untimely_low_bw 4952413
scooby_reward_correct_untimely_high_bw 0
scooby_reward_correct_timely_low_bw 1455712
scooby_reward_correct_timely_high_bw 0
scooby_reward_out_of_bounds_low_bw 1719211
scooby_reward_out_of_bounds_high_bw 0
scooby_reward_tracker_hit_low_bw 0
scooby_reward_tracker_hit_high_bw 0

scooby_reward_1 0,3046283,2766992,175717,103408,0,
scooby_reward_3 0,10521,11711,691,1483,0,
scooby_reward_4 0,9162,264,71,792,0,
scooby_reward_5 0,8846,233,55,974,0,
scooby_reward_10 0,7846,43,236,1786,0,
scooby_reward_11 0,500044,562439,393186,311700,0,
scooby_reward_12 0,7441,330,440,2313,0,
scooby_reward_22 0,21156,8936,6757,10505,0,
scooby_reward_23 0,761090,850994,816579,1226724,0,
scooby_reward_30 0,56885,24425,10498,18304,0,
scooby_reward_32 0,3470,7,16,4233,0,
scooby_reward_-1 0,37334,385161,19703,7125,0,
scooby_reward_-3 0,21497,225957,18470,13931,0,
scooby_reward_-6 0,17902,114921,13293,15933,0,
scooby_reward_0 69623,0,0,0,0,0,

scooby_train_called 12706375
scooby_train_compute_reward 4579100

scooby_register_fill_called 6579806
scooby_register_fill_set 4073424
scooby_register_fill_set_total 4073424

scooby_register_prefetch_hit_called 19495568
scooby_register_prefetch_hit_set 6790988
scooby_register_prefetch_hit_set_total 6790988

scooby_pref_issue_scooby 26533679

learning_engine_featurewise.action.called 12957710
learning_engine_featurewise.action.explore 23478
learning_engine_featurewise.action.exploit 12934232
learning_engine_featurewise.action.fallback 3045174
learning_engine_featurewise.action.dyn_fallback_saved_bw 0
learning_engine_featurewise.action.dyn_fallback_saved_bw_acc 436336
learning_engine_featurewise.action.index_1_explored 1598
learning_engine_featurewise.action.index_1_exploited 6292933
learning_engine_featurewise.action.index_3_explored 1554
learning_engine_featurewise.action.index_3_exploited 22981
learning_engine_featurewise.action.index_4_explored 1615
learning_engine_featurewise.action.index_4_exploited 8767
learning_engine_featurewise.action.index_5_explored 1537
learning_engine_featurewise.action.index_5_exploited 8649
learning_engine_featurewise.action.index_10_explored 1588
learning_engine_featurewise.action.index_10_exploited 8397
learning_engine_featurewise.action.index_11_explored 1543
learning_engine_featurewise.action.index_11_exploited 1802482
learning_engine_featurewise.action.index_12_explored 1642
learning_engine_featurewise.action.index_12_exploited 9162
learning_engine_featurewise.action.index_22_explored 1600
learning_engine_featurewise.action.index_22_exploited 45759
learning_engine_featurewise.action.index_23_explored 1521
learning_engine_featurewise.action.index_23_exploited 3653892
learning_engine_featurewise.action.index_30_explored 1561
learning_engine_featurewise.action.index_30_exploited 108606
learning_engine_featurewise.action.index_32_explored 1502
learning_engine_featurewise.action.index_32_exploited 6224
learning_engine_featurewise.action.index_-1_explored 1582
learning_engine_featurewise.action.index_-1_exploited 458677
learning_engine_featurewise.action.index_-3_explored 1539
learning_engine_featurewise.action.index_-3_exploited 278734
learning_engine_featurewise.action.index_-6_explored 1526
learning_engine_featurewise.action.index_-6_exploited 160914
learning_engine_featurewise.action.index_0_explored 1570
learning_engine_featurewise.action.index_0_exploited 68055
learning_engine_featurewise.learn.called 12706375
learning_engine_featurewise.learn.su_skip_PC 0
learning_engine_featurewise.learn.su_skip_PC_Delta 0

learning_engine_featurewise.q_value_histogram.bucket_0 133653
learning_engine_featurewise.q_value_histogram.bucket_1 71620
learning_engine_featurewise.q_value_histogram.bucket_2 4131934
learning_engine_featurewise.q_value_histogram.bucket_3 372193
learning_engine_featurewise.q_value_histogram.bucket_4 812130
learning_engine_featurewise.q_value_histogram.bucket_5 2097427
learning_engine_featurewise.q_value_histogram.bucket_6 5315275
learning_engine_featurewise.q_value_histogram.bucket_7 0

learning_engine_featurewise.consensus.total 12934232
learning_engine_featurewise.consensus.feature_align_PC 12042424
learning_engine_featurewise.consensus.feature_align_PC_ratio 0.93
learning_engine_featurewise.consensus.feature_align_PC_Delta 10923331
learning_engine_featurewise.consensus.feature_align_PC_Delta_ratio 0.84
learning_engine_featurewise.consensus.feature_align_all 10236674
learning_engine_featurewise.consensus.feature_align_all_ratio 0.79

learning_engine_featurewise.feature_PC_min_weight 1000000.00000000
learning_engine_featurewise.feature_PC_max_weight 0.00000000
learning_engine_featurewise.feature_PC_Delta_min_weight 1000000.00000000
learning_engine_featurewise.feature_PC_Delta_max_weight 0.00000000
unique_pcs 1582
unique_pages 101432
unique_trigger_pcs 575
total_bitmaps_seen 0
unique_bitmaps_seen 0

scooby_bw_epochs 3582851
scooby_bw_level_0 1889305
scooby_bw_level_1 551893
scooby_bw_level_2 502427
scooby_bw_level_3 639226

scooby_ipc_epochs 0
scooby_ipc_level_0 0
scooby_ipc_level_1 0
scooby_ipc_level_2 0
scooby_ipc_level_3 0

scooby_cache_acc_epochs 846956
scooby_cache_acc_level_0 15046
scooby_cache_acc_level_1 24867
scooby_cache_acc_level_2 51005
scooby_cache_acc_level_3 80732
scooby_cache_acc_level_4 119568
scooby_cache_acc_level_5 104804
scooby_cache_acc_level_6 81239
scooby_cache_acc_level_7 69321
scooby_cache_acc_level_8 68025
scooby_cache_acc_level_9 232349

Channel_0_RQ_row_buffer_hit 1373909
Channel_0_RQ_row_buffer_miss 2591284
Channel_0_WQ_row_buffer_hit 151256
Channel_0_WQ_row_buffer_miss 654077
Channel_0_WQ_full 0
Channel_0_dbus_congested 2569305

avg_congested_cycle 38

DRAM_bw_pochs 3582851
DRAM_bw_level_0 1889305
DRAM_bw_level_1 551893
DRAM_bw_level_2 502427
DRAM_bw_level_3 639226
