*************************************************
   ChampSim Multicore Out-of-Order Simulator
   Last compiled: Dec 11 2024 17:59:53
*************************************************
parsing config file: /home/functionmain/桌面/Pythia/config/pythia.ini

trace_0 /home/functionmain/桌面/Pythia/traces/459.GemsFDTD-1418B.champsimtrace.xz
adding L2C_PREFETCHER: Scooby
Initialize SHIP state
warmup_instructions 100000000
simulation_instructions 500000000
champsim_seed 272
measure_ipc 0
measure_ipc_epoch 1000
measure_dram_bw 1
measure_dram_bw_epoch 256
measure_cache_acc 1
measure_cache_acc_epoch 1024
l1d_perfect 0
l2c_perfect 0
llc_perfect 0
l1d_semi_perfect 0
l2c_semi_perfect 0
llc_semi_perfect 0
semi_perfect_cache_page_buffer_size 64

num_cpus 1
cpu_freq 4000
dram_io_freq 2400
page_size 4096
block_size 64
max_read_per_cycle 8
max_fill_per_cycle 1
dram_channels 1
log2_dram_channels 0
dram_ranks 1
dram_banks 8
dram_rows 65536
dram_columns 128
dram_row_size 8
dram_size 4096
dram_pages 1048576

fetch_width 6
decode_width 6
exec_width 4
lq_width 2
sq_width 2
retire_width 4
scheduler_size 128
branch_mispredict_penalty 20
rob_size 256
lq_size 72
sq_size 56
num_instr_destinations_sparc 4
num_instr_destinations 2
num_instr_sources 4

itlb_set 16
itlb_way 8
itlb_rq_size 16
itlb_wq_size 16
itlb_pq_size 0
itlb_mshr_size 8
itlb_latency 1

dtlb_set 16
dtlb_way 4
dtlb_rq_size 16
dtlb_wq_size 16
dtlb_pq_size 0
dtlb_mshr_size 8
dtlb_latency 1

stlb_set 128
stlb_way 12
stlb_rq_size 32
stlb_wq_size 32
stlb_pq_size 0
stlb_mshr_size 16
stlb_latency 8

l1i_size 32
l1i_set 64
l1i_way 8
l1i_rq_size 64
l1i_wq_size 64
l1i_pq_size 8
l1i_mshr_size 8
l1i_latency 1

l1d_size 32
l1d_set 64
l1d_way 8
l1d_rq_size 64
l1d_wq_size 64
l1d_pq_size 8
l1d_mshr_size 16
l1d_latency 4

l2c_size 256
l2c_set 512
l2c_way 8
l2c_rq_size 32
l2c_wq_size 32
l2c_pq_size 32
l2c_mshr_size 32
l2c_latency 10

llc_size 2048
llc_set 2048
llc_way 16
llc_rq_size 32
llc_wq_size 32
llc_pq_size 32
llc_mshr_size 64
llc_latency 20

dram_channel_width 8
dram_wq_size 64
dram_rq_size 64
tRP 15
tRCD 15
tCAS 12.5
dram_dbus_turn_around_time 30
dram_write_high_wm 56
dram_write_low_wm 48
min_dram_writes_per_switch 16
dram_mtps 2400
dram_dbus_return_time 13

scooby_alpha 0.0065088
scooby_gamma 0.556301
scooby_epsilon 0.00182284
scooby_state_num_bits 10
scooby_max_states 1024
scooby_seed 200
scooby_policy EGreedy
scooby_learning_type SARSA
scooby_actions 1,3,4,5,10,11,12,22,23,30,32,-1,-3,-6,0,
scooby_max_actions 15
scooby_pt_size 256
scooby_st_size 64
scooby_max_pcs 5
scooby_max_offsets 5
scooby_max_deltas 5
scooby_reward_none -4
scooby_reward_incorrect -8
scooby_reward_correct_untimely 12
scooby_reward_correct_timely 20
scooby_brain_zero_init 0
scooby_enable_reward_all 0
scooby_enable_track_multiple 0
scooby_enable_reward_out_of_bounds 1
scooby_reward_out_of_bounds -12
scooby_state_type 1
scooby_state_hash_type 11
scooby_access_debug 0
scooby_print_access_debug 0
scooby_print_access_debug_pc deadbeef
scooby_print_access_debug_pc_count 0
scooby_print_trace 0
scooby_enable_state_action_stats 1
scooby_enable_reward_tracker_hit 0
scooby_reward_tracker_hit -2
scooby_enable_featurewise_engine 1
scooby_pref_degree 1
scooby_enable_dyn_degree 1
scooby_max_to_avg_q_thresholds 0.5,1,2,
scooby_dyn_degrees 1,2,4,4,
scooby_multi_deg_select_type 2
scooby_last_pref_offset_conf_thresholds 1,3,8,
scooby_dyn_degrees_type2 1,2,4,6,
scooby_action_tracker_size 2
scooby_high_bw_thresh 4
scooby_enable_hbw_reward 1
scooby_reward_hbw_correct_timely 20
scooby_reward_hbw_correct_untimely 12
scooby_reward_hbw_incorrect -14
scooby_reward_hbw_none -2
scooby_reward_hbw_out_of_bounds -12
scooby_reward_hbw_tracker_hit -2
scooby_last_pref_offset_conf_thresholds_hbw 1,3,8,
scooby_dyn_degrees_type2_hbw 1,2,4,6,

le_enable_trace 0
le_trace_interval 0
le_trace_file_name 
le_trace_state 0
le_enable_score_plot 0
le_plot_file_name 
le_plot_actions 
le_enable_action_trace 0
le_action_trace_interval 0
le_action_trace_name 
le_enable_action_plot 0

le_featurewise_active_features PC, PC_Delta
le_featurewise_num_tilings 3,3,
le_featurewise_num_tiles 128,128,
le_featurewise_hash_types 2,2,
le_featurewise_enable_tiling_offset 1,1,
le_featurewise_max_q_thresh 0.5
le_featurewise_enable_action_fallback 1
le_featurewise_feature_weights 1,1,
le_featurewise_enable_dynamic_weight 0
le_featurewise_weight_gradient 0.001
le_featurewise_disable_adjust_weight_all_features_align 1
le_featurewise_selective_update 0
le_featurewise_pooling_type 2
le_featurewise_enable_dyn_action_fallback 1
le_featurewise_bw_acc_check_level 1
le_featurewise_acc_thresh 2
le_featurewise_enable_trace 0
le_featurewise_trace_feature_type 0
le_featurewise_trace_feature 
le_featurewise_trace_interval 0
le_featurewise_trace_record_count 0
le_featurewise_trace_file_name 
le_featurewise_enable_score_plot 0
le_featurewise_plot_actions 
le_featurewise_plot_file_name 


Heartbeat CPU  0 instructions:    1000001 cycles:     778576 heartbeat IPC: 1.28440 cumulative IPC: 1.28440 (Simulation time: 0 hr 0 min 3 sec) 
Heartbeat CPU  0 instructions:    2000002 cycles:    1557279 heartbeat IPC: 1.28419 cumulative IPC: 1.28429 (Simulation time: 0 hr 0 min 5 sec) 
Heartbeat CPU  0 instructions:    3000003 cycles:    2335740 heartbeat IPC: 1.28459 cumulative IPC: 1.28439 (Simulation time: 0 hr 0 min 8 sec) 
Heartbeat CPU  0 instructions:    4000000 cycles:    3114360 heartbeat IPC: 1.28432 cumulative IPC: 1.28437 (Simulation time: 0 hr 0 min 10 sec) 
Heartbeat CPU  0 instructions:    5000001 cycles:    3893021 heartbeat IPC: 1.28426 cumulative IPC: 1.28435 (Simulation time: 0 hr 0 min 13 sec) 
Heartbeat CPU  0 instructions:    6000002 cycles:    4671596 heartbeat IPC: 1.28440 cumulative IPC: 1.28436 (Simulation time: 0 hr 0 min 16 sec) 
Heartbeat CPU  0 instructions:    7000003 cycles:    5450147 heartbeat IPC: 1.28444 cumulative IPC: 1.28437 (Simulation time: 0 hr 0 min 18 sec) 
Heartbeat CPU  0 instructions:    8000000 cycles:    6228404 heartbeat IPC: 1.28492 cumulative IPC: 1.28444 (Simulation time: 0 hr 0 min 21 sec) 
Heartbeat CPU  0 instructions:    9000002 cycles:    7007016 heartbeat IPC: 1.28434 cumulative IPC: 1.28443 (Simulation time: 0 hr 0 min 23 sec) 
Heartbeat CPU  0 instructions:   10000003 cycles:    7785549 heartbeat IPC: 1.28447 cumulative IPC: 1.28443 (Simulation time: 0 hr 0 min 26 sec) 
Heartbeat CPU  0 instructions:   11000000 cycles:    8563931 heartbeat IPC: 1.28471 cumulative IPC: 1.28446 (Simulation time: 0 hr 0 min 29 sec) 
Heartbeat CPU  0 instructions:   12000000 cycles:    9342300 heartbeat IPC: 1.28474 cumulative IPC: 1.28448 (Simulation time: 0 hr 0 min 31 sec) 
Heartbeat CPU  0 instructions:   13000003 cycles:   10121088 heartbeat IPC: 1.28405 cumulative IPC: 1.28445 (Simulation time: 0 hr 0 min 34 sec) 
Heartbeat CPU  0 instructions:   14000000 cycles:   10899591 heartbeat IPC: 1.28451 cumulative IPC: 1.28445 (Simulation time: 0 hr 0 min 37 sec) 
Heartbeat CPU  0 instructions:   15000001 cycles:   11678098 heartbeat IPC: 1.28451 cumulative IPC: 1.28446 (Simulation time: 0 hr 0 min 39 sec) 
Heartbeat CPU  0 instructions:   16000000 cycles:   12456829 heartbeat IPC: 1.28414 cumulative IPC: 1.28444 (Simulation time: 0 hr 0 min 42 sec) 
Heartbeat CPU  0 instructions:   17000003 cycles:   13235288 heartbeat IPC: 1.28459 cumulative IPC: 1.28445 (Simulation time: 0 hr 0 min 44 sec) 
Heartbeat CPU  0 instructions:   18000000 cycles:   14013629 heartbeat IPC: 1.28478 cumulative IPC: 1.28446 (Simulation time: 0 hr 0 min 47 sec) 
Heartbeat CPU  0 instructions:   19000003 cycles:   14792222 heartbeat IPC: 1.28437 cumulative IPC: 1.28446 (Simulation time: 0 hr 0 min 50 sec) 
Heartbeat CPU  0 instructions:   20000000 cycles:   15570709 heartbeat IPC: 1.28454 cumulative IPC: 1.28446 (Simulation time: 0 hr 0 min 52 sec) 
Heartbeat CPU  0 instructions:   21000003 cycles:   16349542 heartbeat IPC: 1.28398 cumulative IPC: 1.28444 (Simulation time: 0 hr 0 min 55 sec) 
Heartbeat CPU  0 instructions:   22000000 cycles:   17127974 heartbeat IPC: 1.28463 cumulative IPC: 1.28445 (Simulation time: 0 hr 0 min 57 sec) 
Heartbeat CPU  0 instructions:   23000003 cycles:   17906553 heartbeat IPC: 1.28439 cumulative IPC: 1.28445 (Simulation time: 0 hr 1 min 0 sec) 
Heartbeat CPU  0 instructions:   24000000 cycles:   18685299 heartbeat IPC: 1.28411 cumulative IPC: 1.28443 (Simulation time: 0 hr 1 min 3 sec) 
Heartbeat CPU  0 instructions:   25000001 cycles:   19463574 heartbeat IPC: 1.28489 cumulative IPC: 1.28445 (Simulation time: 0 hr 1 min 5 sec) 
Heartbeat CPU  0 instructions:   26000001 cycles:   20242015 heartbeat IPC: 1.28462 cumulative IPC: 1.28446 (Simulation time: 0 hr 1 min 8 sec) 
Heartbeat CPU  0 instructions:   27000002 cycles:   21020615 heartbeat IPC: 1.28436 cumulative IPC: 1.28445 (Simulation time: 0 hr 1 min 10 sec) 
Heartbeat CPU  0 instructions:   28000000 cycles:   21799112 heartbeat IPC: 1.28452 cumulative IPC: 1.28446 (Simulation time: 0 hr 1 min 13 sec) 
Heartbeat CPU  0 instructions:   29000001 cycles:   22577586 heartbeat IPC: 1.28457 cumulative IPC: 1.28446 (Simulation time: 0 hr 1 min 16 sec) 
Heartbeat CPU  0 instructions:   30000002 cycles:   23356273 heartbeat IPC: 1.28421 cumulative IPC: 1.28445 (Simulation time: 0 hr 1 min 18 sec) 
Heartbeat CPU  0 instructions:   31000003 cycles:   24134821 heartbeat IPC: 1.28444 cumulative IPC: 1.28445 (Simulation time: 0 hr 1 min 21 sec) 
Heartbeat CPU  0 instructions:   32000000 cycles:   24913302 heartbeat IPC: 1.28455 cumulative IPC: 1.28445 (Simulation time: 0 hr 1 min 24 sec) 
Heartbeat CPU  0 instructions:   33000003 cycles:   25691834 heartbeat IPC: 1.28447 cumulative IPC: 1.28445 (Simulation time: 0 hr 1 min 26 sec) 
Heartbeat CPU  0 instructions:   34000002 cycles:   26460987 heartbeat IPC: 1.30013 cumulative IPC: 1.28491 (Simulation time: 0 hr 1 min 29 sec) 
Heartbeat CPU  0 instructions:   35000001 cycles:   27243101 heartbeat IPC: 1.27858 cumulative IPC: 1.28473 (Simulation time: 0 hr 1 min 31 sec) 
Heartbeat CPU  0 instructions:   36000000 cycles:   28023745 heartbeat IPC: 1.28099 cumulative IPC: 1.28462 (Simulation time: 0 hr 1 min 34 sec) 
Heartbeat CPU  0 instructions:   37000000 cycles:   28804377 heartbeat IPC: 1.28101 cumulative IPC: 1.28453 (Simulation time: 0 hr 1 min 37 sec) 
Heartbeat CPU  0 instructions:   38000001 cycles:   29584717 heartbeat IPC: 1.28149 cumulative IPC: 1.28445 (Simulation time: 0 hr 1 min 39 sec) 
Heartbeat CPU  0 instructions:   39000003 cycles:   30365225 heartbeat IPC: 1.28122 cumulative IPC: 1.28436 (Simulation time: 0 hr 1 min 42 sec) 
Heartbeat CPU  0 instructions:   40000000 cycles:   31146096 heartbeat IPC: 1.28062 cumulative IPC: 1.28427 (Simulation time: 0 hr 1 min 44 sec) 
Heartbeat CPU  0 instructions:   41000000 cycles:   31927010 heartbeat IPC: 1.28055 cumulative IPC: 1.28418 (Simulation time: 0 hr 1 min 47 sec) 
Heartbeat CPU  0 instructions:   42000002 cycles:   32707431 heartbeat IPC: 1.28136 cumulative IPC: 1.28411 (Simulation time: 0 hr 1 min 50 sec) 
Heartbeat CPU  0 instructions:   43000000 cycles:   33487519 heartbeat IPC: 1.28190 cumulative IPC: 1.28406 (Simulation time: 0 hr 1 min 52 sec) 
Heartbeat CPU  0 instructions:   44000000 cycles:   34266939 heartbeat IPC: 1.28301 cumulative IPC: 1.28404 (Simulation time: 0 hr 1 min 55 sec) 
Heartbeat CPU  0 instructions:   45000000 cycles:   35046632 heartbeat IPC: 1.28256 cumulative IPC: 1.28400 (Simulation time: 0 hr 1 min 58 sec) 
Heartbeat CPU  0 instructions:   46000002 cycles:   35826250 heartbeat IPC: 1.28268 cumulative IPC: 1.28397 (Simulation time: 0 hr 2 min 0 sec) 
Heartbeat CPU  0 instructions:   47000001 cycles:   36605228 heartbeat IPC: 1.28373 cumulative IPC: 1.28397 (Simulation time: 0 hr 2 min 3 sec) 
Heartbeat CPU  0 instructions:   48000000 cycles:   37384052 heartbeat IPC: 1.28399 cumulative IPC: 1.28397 (Simulation time: 0 hr 2 min 5 sec) 
Heartbeat CPU  0 instructions:   49000001 cycles:   38163911 heartbeat IPC: 1.28228 cumulative IPC: 1.28394 (Simulation time: 0 hr 2 min 8 sec) 
Heartbeat CPU  0 instructions:   50000002 cycles:   38943706 heartbeat IPC: 1.28239 cumulative IPC: 1.28390 (Simulation time: 0 hr 2 min 11 sec) 
Heartbeat CPU  0 instructions:   51000000 cycles:   39722591 heartbeat IPC: 1.28388 cumulative IPC: 1.28390 (Simulation time: 0 hr 2 min 13 sec) 
Heartbeat CPU  0 instructions:   52000000 cycles:   40501523 heartbeat IPC: 1.28381 cumulative IPC: 1.28390 (Simulation time: 0 hr 2 min 16 sec) 
Heartbeat CPU  0 instructions:   53000002 cycles:   41282275 heartbeat IPC: 1.28082 cumulative IPC: 1.28384 (Simulation time: 0 hr 2 min 19 sec) 
Heartbeat CPU  0 instructions:   54000000 cycles:   42062678 heartbeat IPC: 1.28139 cumulative IPC: 1.28380 (Simulation time: 0 hr 2 min 21 sec) 
Heartbeat CPU  0 instructions:   55000003 cycles:   42842662 heartbeat IPC: 1.28208 cumulative IPC: 1.28377 (Simulation time: 0 hr 2 min 24 sec) 
Heartbeat CPU  0 instructions:   56000000 cycles:   43622931 heartbeat IPC: 1.28161 cumulative IPC: 1.28373 (Simulation time: 0 hr 2 min 27 sec) 
Heartbeat CPU  0 instructions:   57000001 cycles:   44404130 heartbeat IPC: 1.28008 cumulative IPC: 1.28366 (Simulation time: 0 hr 2 min 29 sec) 
Heartbeat CPU  0 instructions:   58000000 cycles:   45184761 heartbeat IPC: 1.28101 cumulative IPC: 1.28362 (Simulation time: 0 hr 2 min 32 sec) 
Heartbeat CPU  0 instructions:   59000001 cycles:   45965143 heartbeat IPC: 1.28142 cumulative IPC: 1.28358 (Simulation time: 0 hr 2 min 34 sec) 
Heartbeat CPU  0 instructions:   60000000 cycles:   46745651 heartbeat IPC: 1.28122 cumulative IPC: 1.28354 (Simulation time: 0 hr 2 min 37 sec) 
Heartbeat CPU  0 instructions:   61000003 cycles:   47526708 heartbeat IPC: 1.28032 cumulative IPC: 1.28349 (Simulation time: 0 hr 2 min 40 sec) 
Heartbeat CPU  0 instructions:   62000002 cycles:   48305921 heartbeat IPC: 1.28334 cumulative IPC: 1.28349 (Simulation time: 0 hr 2 min 42 sec) 
Heartbeat CPU  0 instructions:   63000002 cycles:   49085216 heartbeat IPC: 1.28321 cumulative IPC: 1.28348 (Simulation time: 0 hr 2 min 45 sec) 
Heartbeat CPU  0 instructions:   64000000 cycles:   49864374 heartbeat IPC: 1.28343 cumulative IPC: 1.28348 (Simulation time: 0 hr 2 min 48 sec) 
Heartbeat CPU  0 instructions:   65000002 cycles:   50643891 heartbeat IPC: 1.28285 cumulative IPC: 1.28347 (Simulation time: 0 hr 2 min 50 sec) 
Heartbeat CPU  0 instructions:   66000001 cycles:   51422763 heartbeat IPC: 1.28391 cumulative IPC: 1.28348 (Simulation time: 0 hr 2 min 53 sec) 
Heartbeat CPU  0 instructions:   67000003 cycles:   52201712 heartbeat IPC: 1.28378 cumulative IPC: 1.28348 (Simulation time: 0 hr 2 min 56 sec) 
Heartbeat CPU  0 instructions:   68000000 cycles:   52981642 heartbeat IPC: 1.28216 cumulative IPC: 1.28346 (Simulation time: 0 hr 2 min 58 sec) 
Heartbeat CPU  0 instructions:   69000002 cycles:   53761006 heartbeat IPC: 1.28310 cumulative IPC: 1.28346 (Simulation time: 0 hr 3 min 1 sec) 
Heartbeat CPU  0 instructions:   70000001 cycles:   54540681 heartbeat IPC: 1.28258 cumulative IPC: 1.28345 (Simulation time: 0 hr 3 min 3 sec) 
Heartbeat CPU  0 instructions:   71000003 cycles:   55320673 heartbeat IPC: 1.28207 cumulative IPC: 1.28343 (Simulation time: 0 hr 3 min 6 sec) 
Heartbeat CPU  0 instructions:   72000000 cycles:   56100894 heartbeat IPC: 1.28168 cumulative IPC: 1.28340 (Simulation time: 0 hr 3 min 9 sec) 
Heartbeat CPU  0 instructions:   73000000 cycles:   56882071 heartbeat IPC: 1.28012 cumulative IPC: 1.28336 (Simulation time: 0 hr 3 min 11 sec) 
Heartbeat CPU  0 instructions:   74000002 cycles:   57662650 heartbeat IPC: 1.28110 cumulative IPC: 1.28333 (Simulation time: 0 hr 3 min 14 sec) 
Heartbeat CPU  0 instructions:   75000000 cycles:   58443824 heartbeat IPC: 1.28012 cumulative IPC: 1.28328 (Simulation time: 0 hr 3 min 17 sec) 
Heartbeat CPU  0 instructions:   76000000 cycles:   59224495 heartbeat IPC: 1.28095 cumulative IPC: 1.28325 (Simulation time: 0 hr 3 min 19 sec) 
Heartbeat CPU  0 instructions:   77000003 cycles:   60004409 heartbeat IPC: 1.28220 cumulative IPC: 1.28324 (Simulation time: 0 hr 3 min 22 sec) 
Heartbeat CPU  0 instructions:   78000001 cycles:   60784609 heartbeat IPC: 1.28172 cumulative IPC: 1.28322 (Simulation time: 0 hr 3 min 24 sec) 
Heartbeat CPU  0 instructions:   79000001 cycles:   61565878 heartbeat IPC: 1.27997 cumulative IPC: 1.28318 (Simulation time: 0 hr 3 min 27 sec) 
Heartbeat CPU  0 instructions:   80000000 cycles:   62346057 heartbeat IPC: 1.28176 cumulative IPC: 1.28316 (Simulation time: 0 hr 3 min 30 sec) 
Heartbeat CPU  0 instructions:   81000001 cycles:   63124879 heartbeat IPC: 1.28399 cumulative IPC: 1.28317 (Simulation time: 0 hr 3 min 32 sec) 
Heartbeat CPU  0 instructions:   82000002 cycles:   63903430 heartbeat IPC: 1.28444 cumulative IPC: 1.28319 (Simulation time: 0 hr 3 min 35 sec) 
Heartbeat CPU  0 instructions:   83000000 cycles:   64684604 heartbeat IPC: 1.28012 cumulative IPC: 1.28315 (Simulation time: 0 hr 3 min 38 sec) 
Heartbeat CPU  0 instructions:   84000000 cycles:   65463675 heartbeat IPC: 1.28358 cumulative IPC: 1.28315 (Simulation time: 0 hr 3 min 40 sec) 
Heartbeat CPU  0 instructions:   85000002 cycles:   66242570 heartbeat IPC: 1.28387 cumulative IPC: 1.28316 (Simulation time: 0 hr 3 min 43 sec) 
Heartbeat CPU  0 instructions:   86000001 cycles:   67021594 heartbeat IPC: 1.28366 cumulative IPC: 1.28317 (Simulation time: 0 hr 3 min 46 sec) 
Heartbeat CPU  0 instructions:   87000001 cycles:   67800841 heartbeat IPC: 1.28329 cumulative IPC: 1.28317 (Simulation time: 0 hr 3 min 48 sec) 
Heartbeat CPU  0 instructions:   88000000 cycles:   68580019 heartbeat IPC: 1.28340 cumulative IPC: 1.28317 (Simulation time: 0 hr 3 min 51 sec) 
Heartbeat CPU  0 instructions:   89000001 cycles:   69360172 heartbeat IPC: 1.28180 cumulative IPC: 1.28316 (Simulation time: 0 hr 3 min 53 sec) 
Heartbeat CPU  0 instructions:   90000003 cycles:   70140388 heartbeat IPC: 1.28170 cumulative IPC: 1.28314 (Simulation time: 0 hr 3 min 56 sec) 
Heartbeat CPU  0 instructions:   91000001 cycles:   70920663 heartbeat IPC: 1.28160 cumulative IPC: 1.28312 (Simulation time: 0 hr 3 min 59 sec) 
Heartbeat CPU  0 instructions:   92000000 cycles:   71701282 heartbeat IPC: 1.28103 cumulative IPC: 1.28310 (Simulation time: 0 hr 4 min 1 sec) 
Heartbeat CPU  0 instructions:   93000002 cycles:   72481742 heartbeat IPC: 1.28130 cumulative IPC: 1.28308 (Simulation time: 0 hr 4 min 4 sec) 
Heartbeat CPU  0 instructions:   94000000 cycles:   73262129 heartbeat IPC: 1.28141 cumulative IPC: 1.28306 (Simulation time: 0 hr 4 min 7 sec) 
Heartbeat CPU  0 instructions:   95000001 cycles:   74042215 heartbeat IPC: 1.28191 cumulative IPC: 1.28305 (Simulation time: 0 hr 4 min 9 sec) 
Heartbeat CPU  0 instructions:   96000000 cycles:   74822633 heartbeat IPC: 1.28136 cumulative IPC: 1.28303 (Simulation time: 0 hr 4 min 12 sec) 
Heartbeat CPU  0 instructions:   97000002 cycles:   75603938 heartbeat IPC: 1.27991 cumulative IPC: 1.28300 (Simulation time: 0 hr 4 min 14 sec) 
Heartbeat CPU  0 instructions:   98000001 cycles:   76383250 heartbeat IPC: 1.28318 cumulative IPC: 1.28300 (Simulation time: 0 hr 4 min 17 sec) 
Heartbeat CPU  0 instructions:   99000003 cycles:   77162321 heartbeat IPC: 1.28358 cumulative IPC: 1.28301 (Simulation time: 0 hr 4 min 20 sec) 
Heartbeat CPU  0 instructions:  100000000 cycles:   77941155 heartbeat IPC: 1.28397 cumulative IPC: 1.28302 (Simulation time: 0 hr 4 min 22 sec) 

Warmup complete CPU  0 instructions:  100000001 cycles:   77941156 (Simulation time: 0 hr 4 min 22 sec) 

Heartbeat CPU  0 instructions:  101000003 cycles:   79332814 heartbeat IPC: 0.71857 cumulative IPC: 0.71857 (Simulation time: 0 hr 4 min 25 sec) 
Heartbeat CPU  0 instructions:  102000000 cycles:   80715416 heartbeat IPC: 0.72327 cumulative IPC: 0.72091 (Simulation time: 0 hr 4 min 29 sec) 
Heartbeat CPU  0 instructions:  103000002 cycles:   82108397 heartbeat IPC: 0.71789 cumulative IPC: 0.71990 (Simulation time: 0 hr 4 min 32 sec) 
Heartbeat CPU  0 instructions:  104000000 cycles:   83467395 heartbeat IPC: 0.73583 cumulative IPC: 0.72382 (Simulation time: 0 hr 4 min 35 sec) 
Heartbeat CPU  0 instructions:  105000003 cycles:   84869535 heartbeat IPC: 0.71320 cumulative IPC: 0.72167 (Simulation time: 0 hr 4 min 38 sec) 
Heartbeat CPU  0 instructions:  106000002 cycles:   86220211 heartbeat IPC: 0.74037 cumulative IPC: 0.72472 (Simulation time: 0 hr 4 min 41 sec) 
Heartbeat CPU  0 instructions:  107000000 cycles:   87582624 heartbeat IPC: 0.73399 cumulative IPC: 0.72603 (Simulation time: 0 hr 4 min 44 sec) 
Heartbeat CPU  0 instructions:  108000000 cycles:   88965062 heartbeat IPC: 0.72336 cumulative IPC: 0.72570 (Simulation time: 0 hr 4 min 48 sec) 
Heartbeat CPU  0 instructions:  109000003 cycles:   90346929 heartbeat IPC: 0.72366 cumulative IPC: 0.72547 (Simulation time: 0 hr 4 min 51 sec) 
Heartbeat CPU  0 instructions:  110000001 cycles:   91718996 heartbeat IPC: 0.72883 cumulative IPC: 0.72580 (Simulation time: 0 hr 4 min 54 sec) 
Heartbeat CPU  0 instructions:  111000000 cycles:   93065496 heartbeat IPC: 0.74267 cumulative IPC: 0.72730 (Simulation time: 0 hr 4 min 57 sec) 
Heartbeat CPU  0 instructions:  112000000 cycles:   94420519 heartbeat IPC: 0.73799 cumulative IPC: 0.72818 (Simulation time: 0 hr 5 min 0 sec) 
Heartbeat CPU  0 instructions:  113000000 cycles:   95789193 heartbeat IPC: 0.73063 cumulative IPC: 0.72837 (Simulation time: 0 hr 5 min 3 sec) 
Heartbeat CPU  0 instructions:  114000002 cycles:   97136137 heartbeat IPC: 0.74242 cumulative IPC: 0.72936 (Simulation time: 0 hr 5 min 7 sec) 
Heartbeat CPU  0 instructions:  115000000 cycles:   98493507 heartbeat IPC: 0.73672 cumulative IPC: 0.72984 (Simulation time: 0 hr 5 min 10 sec) 
Heartbeat CPU  0 instructions:  116000000 cycles:   99860766 heartbeat IPC: 0.73139 cumulative IPC: 0.72994 (Simulation time: 0 hr 5 min 13 sec) 
Heartbeat CPU  0 instructions:  117000000 cycles:  101224388 heartbeat IPC: 0.73334 cumulative IPC: 0.73014 (Simulation time: 0 hr 5 min 16 sec) 
Heartbeat CPU  0 instructions:  118000003 cycles:  102571543 heartbeat IPC: 0.74231 cumulative IPC: 0.73080 (Simulation time: 0 hr 5 min 19 sec) 
Heartbeat CPU  0 instructions:  119000001 cycles:  103922699 heartbeat IPC: 0.74011 cumulative IPC: 0.73129 (Simulation time: 0 hr 5 min 22 sec) 
Heartbeat CPU  0 instructions:  120000000 cycles:  105292859 heartbeat IPC: 0.72984 cumulative IPC: 0.73122 (Simulation time: 0 hr 5 min 26 sec) 
Heartbeat CPU  0 instructions:  121000000 cycles:  106646266 heartbeat IPC: 0.73888 cumulative IPC: 0.73158 (Simulation time: 0 hr 5 min 29 sec) 
Heartbeat CPU  0 instructions:  122000002 cycles:  108017646 heartbeat IPC: 0.72919 cumulative IPC: 0.73147 (Simulation time: 0 hr 5 min 32 sec) 
Heartbeat CPU  0 instructions:  123000000 cycles:  109395884 heartbeat IPC: 0.72556 cumulative IPC: 0.73121 (Simulation time: 0 hr 5 min 35 sec) 
Heartbeat CPU  0 instructions:  124000000 cycles:  110766936 heartbeat IPC: 0.72937 cumulative IPC: 0.73113 (Simulation time: 0 hr 5 min 38 sec) 
Heartbeat CPU  0 instructions:  125000002 cycles:  112141192 heartbeat IPC: 0.72767 cumulative IPC: 0.73099 (Simulation time: 0 hr 5 min 41 sec) 
Heartbeat CPU  0 instructions:  126000000 cycles:  113501834 heartbeat IPC: 0.73495 cumulative IPC: 0.73114 (Simulation time: 0 hr 5 min 45 sec) 
Heartbeat CPU  0 instructions:  127000002 cycles:  114889854 heartbeat IPC: 0.72045 cumulative IPC: 0.73074 (Simulation time: 0 hr 5 min 48 sec) 
Heartbeat CPU  0 instructions:  128000000 cycles:  116256967 heartbeat IPC: 0.73147 cumulative IPC: 0.73077 (Simulation time: 0 hr 5 min 51 sec) 
Heartbeat CPU  0 instructions:  129000001 cycles:  117613206 heartbeat IPC: 0.73733 cumulative IPC: 0.73099 (Simulation time: 0 hr 5 min 54 sec) 
Heartbeat CPU  0 instructions:  130000003 cycles:  119005512 heartbeat IPC: 0.71823 cumulative IPC: 0.73056 (Simulation time: 0 hr 5 min 57 sec) 
Heartbeat CPU  0 instructions:  131000003 cycles:  120410359 heartbeat IPC: 0.71182 cumulative IPC: 0.72994 (Simulation time: 0 hr 6 min 0 sec) 
Heartbeat CPU  0 instructions:  132000000 cycles:  121779541 heartbeat IPC: 0.73036 cumulative IPC: 0.72995 (Simulation time: 0 hr 6 min 4 sec) 
Heartbeat CPU  0 instructions:  133000000 cycles:  123139044 heartbeat IPC: 0.73556 cumulative IPC: 0.73012 (Simulation time: 0 hr 6 min 7 sec) 
Heartbeat CPU  0 instructions:  134000002 cycles:  124258061 heartbeat IPC: 0.89364 cumulative IPC: 0.73407 (Simulation time: 0 hr 6 min 10 sec) 
Heartbeat CPU  0 instructions:  135000002 cycles:  125380602 heartbeat IPC: 0.89084 cumulative IPC: 0.73778 (Simulation time: 0 hr 6 min 13 sec) 
Heartbeat CPU  0 instructions:  136000000 cycles:  126502482 heartbeat IPC: 0.89136 cumulative IPC: 0.74133 (Simulation time: 0 hr 6 min 15 sec) 
Heartbeat CPU  0 instructions:  137000002 cycles:  127615952 heartbeat IPC: 0.89810 cumulative IPC: 0.74484 (Simulation time: 0 hr 6 min 18 sec) 
Heartbeat CPU  0 instructions:  138000003 cycles:  128726885 heartbeat IPC: 0.90015 cumulative IPC: 0.74824 (Simulation time: 0 hr 6 min 21 sec) 
Heartbeat CPU  0 instructions:  139000001 cycles:  129841027 heartbeat IPC: 0.89755 cumulative IPC: 0.75145 (Simulation time: 0 hr 6 min 24 sec) 
Heartbeat CPU  0 instructions:  140000000 cycles:  130909552 heartbeat IPC: 0.93587 cumulative IPC: 0.75517 (Simulation time: 0 hr 6 min 27 sec) 
Heartbeat CPU  0 instructions:  141000003 cycles:  131974016 heartbeat IPC: 0.93944 cumulative IPC: 0.75880 (Simulation time: 0 hr 6 min 29 sec) 
Heartbeat CPU  0 instructions:  142000003 cycles:  133040400 heartbeat IPC: 0.93775 cumulative IPC: 0.76226 (Simulation time: 0 hr 6 min 32 sec) 
Heartbeat CPU  0 instructions:  143000000 cycles:  134305808 heartbeat IPC: 0.79026 cumulative IPC: 0.76289 (Simulation time: 0 hr 6 min 35 sec) 
Heartbeat CPU  0 instructions:  144000000 cycles:  135682343 heartbeat IPC: 0.72646 cumulative IPC: 0.76202 (Simulation time: 0 hr 6 min 38 sec) 
Heartbeat CPU  0 instructions:  145000002 cycles:  137017443 heartbeat IPC: 0.74901 cumulative IPC: 0.76173 (Simulation time: 0 hr 6 min 42 sec) 
Heartbeat CPU  0 instructions:  146000000 cycles:  138353940 heartbeat IPC: 0.74822 cumulative IPC: 0.76143 (Simulation time: 0 hr 6 min 45 sec) 
Heartbeat CPU  0 instructions:  147000002 cycles:  139692510 heartbeat IPC: 0.74707 cumulative IPC: 0.76112 (Simulation time: 0 hr 6 min 48 sec) 
Heartbeat CPU  0 instructions:  148000000 cycles:  141027491 heartbeat IPC: 0.74907 cumulative IPC: 0.76086 (Simulation time: 0 hr 6 min 51 sec) 
Heartbeat CPU  0 instructions:  149000001 cycles:  142368795 heartbeat IPC: 0.74554 cumulative IPC: 0.76054 (Simulation time: 0 hr 6 min 54 sec) 
Heartbeat CPU  0 instructions:  150000003 cycles:  143727568 heartbeat IPC: 0.73596 cumulative IPC: 0.76004 (Simulation time: 0 hr 6 min 57 sec) 
Heartbeat CPU  0 instructions:  151000001 cycles:  145099428 heartbeat IPC: 0.72894 cumulative IPC: 0.75940 (Simulation time: 0 hr 7 min 0 sec) 
Heartbeat CPU  0 instructions:  152000000 cycles:  146466159 heartbeat IPC: 0.73167 cumulative IPC: 0.75885 (Simulation time: 0 hr 7 min 4 sec) 
Heartbeat CPU  0 instructions:  153000002 cycles:  147797584 heartbeat IPC: 0.75108 cumulative IPC: 0.75870 (Simulation time: 0 hr 7 min 7 sec) 
Heartbeat CPU  0 instructions:  154000000 cycles:  149147832 heartbeat IPC: 0.74060 cumulative IPC: 0.75836 (Simulation time: 0 hr 7 min 10 sec) 
Heartbeat CPU  0 instructions:  155000000 cycles:  150513764 heartbeat IPC: 0.73210 cumulative IPC: 0.75786 (Simulation time: 0 hr 7 min 13 sec) 
Heartbeat CPU  0 instructions:  156000000 cycles:  151872610 heartbeat IPC: 0.73592 cumulative IPC: 0.75746 (Simulation time: 0 hr 7 min 16 sec) 
Heartbeat CPU  0 instructions:  157000001 cycles:  153224431 heartbeat IPC: 0.73974 cumulative IPC: 0.75714 (Simulation time: 0 hr 7 min 19 sec) 
Heartbeat CPU  0 instructions:  158000003 cycles:  154582558 heartbeat IPC: 0.73631 cumulative IPC: 0.75677 (Simulation time: 0 hr 7 min 22 sec) 
Heartbeat CPU  0 instructions:  159000002 cycles:  155964973 heartbeat IPC: 0.72337 cumulative IPC: 0.75618 (Simulation time: 0 hr 7 min 26 sec) 
Heartbeat CPU  0 instructions:  160000000 cycles:  157317256 heartbeat IPC: 0.73949 cumulative IPC: 0.75590 (Simulation time: 0 hr 7 min 29 sec) 
Heartbeat CPU  0 instructions:  161000003 cycles:  158685921 heartbeat IPC: 0.73064 cumulative IPC: 0.75547 (Simulation time: 0 hr 7 min 32 sec) 
Heartbeat CPU  0 instructions:  162000003 cycles:  160045212 heartbeat IPC: 0.73568 cumulative IPC: 0.75514 (Simulation time: 0 hr 7 min 35 sec) 
Heartbeat CPU  0 instructions:  163000001 cycles:  161403546 heartbeat IPC: 0.73619 cumulative IPC: 0.75483 (Simulation time: 0 hr 7 min 38 sec) 
Heartbeat CPU  0 instructions:  164000000 cycles:  162771078 heartbeat IPC: 0.73124 cumulative IPC: 0.75445 (Simulation time: 0 hr 7 min 41 sec) 
Heartbeat CPU  0 instructions:  165000002 cycles:  164134359 heartbeat IPC: 0.73353 cumulative IPC: 0.75412 (Simulation time: 0 hr 7 min 45 sec) 
Heartbeat CPU  0 instructions:  166000000 cycles:  165512754 heartbeat IPC: 0.72548 cumulative IPC: 0.75367 (Simulation time: 0 hr 7 min 48 sec) 
Heartbeat CPU  0 instructions:  167000002 cycles:  166869271 heartbeat IPC: 0.73718 cumulative IPC: 0.75342 (Simulation time: 0 hr 7 min 51 sec) 
Heartbeat CPU  0 instructions:  168000000 cycles:  168217765 heartbeat IPC: 0.74157 cumulative IPC: 0.75324 (Simulation time: 0 hr 7 min 54 sec) 
Heartbeat CPU  0 instructions:  169000001 cycles:  169558391 heartbeat IPC: 0.74592 cumulative IPC: 0.75313 (Simulation time: 0 hr 7 min 57 sec) 
Heartbeat CPU  0 instructions:  170000003 cycles:  170944297 heartbeat IPC: 0.72155 cumulative IPC: 0.75266 (Simulation time: 0 hr 8 min 1 sec) 
Heartbeat CPU  0 instructions:  171000002 cycles:  172289426 heartbeat IPC: 0.74342 cumulative IPC: 0.75253 (Simulation time: 0 hr 8 min 4 sec) 
Heartbeat CPU  0 instructions:  172000000 cycles:  173653424 heartbeat IPC: 0.73314 cumulative IPC: 0.75225 (Simulation time: 0 hr 8 min 7 sec) 
Heartbeat CPU  0 instructions:  173000002 cycles:  174989346 heartbeat IPC: 0.74855 cumulative IPC: 0.75220 (Simulation time: 0 hr 8 min 10 sec) 
Heartbeat CPU  0 instructions:  174000000 cycles:  176323055 heartbeat IPC: 0.74979 cumulative IPC: 0.75217 (Simulation time: 0 hr 8 min 13 sec) 
Heartbeat CPU  0 instructions:  175000001 cycles:  177655773 heartbeat IPC: 0.75035 cumulative IPC: 0.75215 (Simulation time: 0 hr 8 min 16 sec) 
Heartbeat CPU  0 instructions:  176000000 cycles:  178990003 heartbeat IPC: 0.74950 cumulative IPC: 0.75211 (Simulation time: 0 hr 8 min 20 sec) 
Heartbeat CPU  0 instructions:  177000001 cycles:  180359822 heartbeat IPC: 0.73002 cumulative IPC: 0.75182 (Simulation time: 0 hr 8 min 23 sec) 
Heartbeat CPU  0 instructions:  178000000 cycles:  181708459 heartbeat IPC: 0.74149 cumulative IPC: 0.75168 (Simulation time: 0 hr 8 min 26 sec) 
Heartbeat CPU  0 instructions:  179000002 cycles:  183055009 heartbeat IPC: 0.74264 cumulative IPC: 0.75157 (Simulation time: 0 hr 8 min 29 sec) 
Heartbeat CPU  0 instructions:  180000000 cycles:  184391661 heartbeat IPC: 0.74814 cumulative IPC: 0.75152 (Simulation time: 0 hr 8 min 32 sec) 
Heartbeat CPU  0 instructions:  181000002 cycles:  185747331 heartbeat IPC: 0.73764 cumulative IPC: 0.75135 (Simulation time: 0 hr 8 min 35 sec) 
Heartbeat CPU  0 instructions:  182000003 cycles:  187092030 heartbeat IPC: 0.74366 cumulative IPC: 0.75125 (Simulation time: 0 hr 8 min 38 sec) 
Heartbeat CPU  0 instructions:  183000001 cycles:  188438866 heartbeat IPC: 0.74248 cumulative IPC: 0.75115 (Simulation time: 0 hr 8 min 42 sec) 
Heartbeat CPU  0 instructions:  184000000 cycles:  189807097 heartbeat IPC: 0.73087 cumulative IPC: 0.75090 (Simulation time: 0 hr 8 min 45 sec) 
Heartbeat CPU  0 instructions:  185000003 cycles:  191184611 heartbeat IPC: 0.72595 cumulative IPC: 0.75060 (Simulation time: 0 hr 8 min 48 sec) 
Heartbeat CPU  0 instructions:  186000000 cycles:  192521812 heartbeat IPC: 0.74783 cumulative IPC: 0.75056 (Simulation time: 0 hr 8 min 51 sec) 
Heartbeat CPU  0 instructions:  187000000 cycles:  193879755 heartbeat IPC: 0.73641 cumulative IPC: 0.75040 (Simulation time: 0 hr 8 min 54 sec) 
Heartbeat CPU  0 instructions:  188000000 cycles:  195250724 heartbeat IPC: 0.72941 cumulative IPC: 0.75015 (Simulation time: 0 hr 8 min 57 sec) 
Heartbeat CPU  0 instructions:  189000001 cycles:  196648012 heartbeat IPC: 0.71567 cumulative IPC: 0.74975 (Simulation time: 0 hr 9 min 1 sec) 
Heartbeat CPU  0 instructions:  190000003 cycles:  197982210 heartbeat IPC: 0.74952 cumulative IPC: 0.74974 (Simulation time: 0 hr 9 min 4 sec) 
Heartbeat CPU  0 instructions:  191000002 cycles:  199318665 heartbeat IPC: 0.74825 cumulative IPC: 0.74973 (Simulation time: 0 hr 9 min 7 sec) 
Heartbeat CPU  0 instructions:  192000000 cycles:  200711281 heartbeat IPC: 0.71807 cumulative IPC: 0.74937 (Simulation time: 0 hr 9 min 10 sec) 
Heartbeat CPU  0 instructions:  193000002 cycles:  202063023 heartbeat IPC: 0.73979 cumulative IPC: 0.74926 (Simulation time: 0 hr 9 min 13 sec) 
Heartbeat CPU  0 instructions:  194000003 cycles:  203440825 heartbeat IPC: 0.72579 cumulative IPC: 0.74901 (Simulation time: 0 hr 9 min 17 sec) 
Heartbeat CPU  0 instructions:  195000001 cycles:  204781624 heartbeat IPC: 0.74582 cumulative IPC: 0.74897 (Simulation time: 0 hr 9 min 20 sec) 
Heartbeat CPU  0 instructions:  196000000 cycles:  206131441 heartbeat IPC: 0.74084 cumulative IPC: 0.74889 (Simulation time: 0 hr 9 min 23 sec) 
Heartbeat CPU  0 instructions:  197000001 cycles:  207495522 heartbeat IPC: 0.73310 cumulative IPC: 0.74872 (Simulation time: 0 hr 9 min 26 sec) 
Heartbeat CPU  0 instructions:  198000000 cycles:  208850989 heartbeat IPC: 0.73775 cumulative IPC: 0.74861 (Simulation time: 0 hr 9 min 29 sec) 
Heartbeat CPU  0 instructions:  199000002 cycles:  210219175 heartbeat IPC: 0.73090 cumulative IPC: 0.74842 (Simulation time: 0 hr 9 min 32 sec) 
Heartbeat CPU  0 instructions:  200000000 cycles:  211571667 heartbeat IPC: 0.73937 cumulative IPC: 0.74833 (Simulation time: 0 hr 9 min 35 sec) 
Heartbeat CPU  0 instructions:  201000001 cycles:  212923690 heartbeat IPC: 0.73963 cumulative IPC: 0.74824 (Simulation time: 0 hr 9 min 39 sec) 
Heartbeat CPU  0 instructions:  202000003 cycles:  214260277 heartbeat IPC: 0.74818 cumulative IPC: 0.74824 (Simulation time: 0 hr 9 min 42 sec) 
Heartbeat CPU  0 instructions:  203000001 cycles:  215612449 heartbeat IPC: 0.73955 cumulative IPC: 0.74816 (Simulation time: 0 hr 9 min 45 sec) 
Heartbeat CPU  0 instructions:  204000000 cycles:  216953989 heartbeat IPC: 0.74541 cumulative IPC: 0.74813 (Simulation time: 0 hr 9 min 48 sec) 
Heartbeat CPU  0 instructions:  205000001 cycles:  218286351 heartbeat IPC: 0.75055 cumulative IPC: 0.74816 (Simulation time: 0 hr 9 min 51 sec) 
Heartbeat CPU  0 instructions:  206000000 cycles:  219632723 heartbeat IPC: 0.74274 cumulative IPC: 0.74810 (Simulation time: 0 hr 9 min 54 sec) 
Heartbeat CPU  0 instructions:  207000001 cycles:  220999249 heartbeat IPC: 0.73178 cumulative IPC: 0.74795 (Simulation time: 0 hr 9 min 58 sec) 
Heartbeat CPU  0 instructions:  208000000 cycles:  222340119 heartbeat IPC: 0.74578 cumulative IPC: 0.74793 (Simulation time: 0 hr 10 min 1 sec) 
Heartbeat CPU  0 instructions:  209000001 cycles:  223679188 heartbeat IPC: 0.74679 cumulative IPC: 0.74792 (Simulation time: 0 hr 10 min 4 sec) 
Heartbeat CPU  0 instructions:  210000000 cycles:  225036027 heartbeat IPC: 0.73701 cumulative IPC: 0.74782 (Simulation time: 0 hr 10 min 7 sec) 
Heartbeat CPU  0 instructions:  211000002 cycles:  226399741 heartbeat IPC: 0.73329 cumulative IPC: 0.74768 (Simulation time: 0 hr 10 min 10 sec) 
Heartbeat CPU  0 instructions:  212000000 cycles:  227742227 heartbeat IPC: 0.74489 cumulative IPC: 0.74766 (Simulation time: 0 hr 10 min 13 sec) 
Heartbeat CPU  0 instructions:  213000000 cycles:  229104813 heartbeat IPC: 0.73390 cumulative IPC: 0.74753 (Simulation time: 0 hr 10 min 17 sec) 
Heartbeat CPU  0 instructions:  214000003 cycles:  230479802 heartbeat IPC: 0.72728 cumulative IPC: 0.74735 (Simulation time: 0 hr 10 min 20 sec) 
Heartbeat CPU  0 instructions:  215000001 cycles:  231828075 heartbeat IPC: 0.74169 cumulative IPC: 0.74730 (Simulation time: 0 hr 10 min 23 sec) 
Heartbeat CPU  0 instructions:  216000000 cycles:  233186721 heartbeat IPC: 0.73603 cumulative IPC: 0.74720 (Simulation time: 0 hr 10 min 26 sec) 
Heartbeat CPU  0 instructions:  217000003 cycles:  234539708 heartbeat IPC: 0.73911 cumulative IPC: 0.74713 (Simulation time: 0 hr 10 min 29 sec) 
Heartbeat CPU  0 instructions:  218000000 cycles:  235931200 heartbeat IPC: 0.71865 cumulative IPC: 0.74688 (Simulation time: 0 hr 10 min 32 sec) 
Heartbeat CPU  0 instructions:  219000002 cycles:  237271042 heartbeat IPC: 0.74636 cumulative IPC: 0.74688 (Simulation time: 0 hr 10 min 36 sec) 
Heartbeat CPU  0 instructions:  220000000 cycles:  238623796 heartbeat IPC: 0.73923 cumulative IPC: 0.74681 (Simulation time: 0 hr 10 min 39 sec) 
Heartbeat CPU  0 instructions:  221000001 cycles:  239990952 heartbeat IPC: 0.73145 cumulative IPC: 0.74668 (Simulation time: 0 hr 10 min 42 sec) 
Heartbeat CPU  0 instructions:  222000003 cycles:  241355780 heartbeat IPC: 0.73269 cumulative IPC: 0.74657 (Simulation time: 0 hr 10 min 45 sec) 
Heartbeat CPU  0 instructions:  223000001 cycles:  242710702 heartbeat IPC: 0.73805 cumulative IPC: 0.74650 (Simulation time: 0 hr 10 min 48 sec) 
Heartbeat CPU  0 instructions:  224000000 cycles:  244056390 heartbeat IPC: 0.74311 cumulative IPC: 0.74647 (Simulation time: 0 hr 10 min 51 sec) 
Heartbeat CPU  0 instructions:  225000002 cycles:  245419680 heartbeat IPC: 0.73352 cumulative IPC: 0.74636 (Simulation time: 0 hr 10 min 55 sec) 
Heartbeat CPU  0 instructions:  226000000 cycles:  246778873 heartbeat IPC: 0.73573 cumulative IPC: 0.74628 (Simulation time: 0 hr 10 min 58 sec) 
Heartbeat CPU  0 instructions:  227000001 cycles:  248152166 heartbeat IPC: 0.72818 cumulative IPC: 0.74613 (Simulation time: 0 hr 11 min 1 sec) 
Heartbeat CPU  0 instructions:  228000000 cycles:  249500196 heartbeat IPC: 0.74182 cumulative IPC: 0.74610 (Simulation time: 0 hr 11 min 4 sec) 
Heartbeat CPU  0 instructions:  229000001 cycles:  250895613 heartbeat IPC: 0.71663 cumulative IPC: 0.74586 (Simulation time: 0 hr 11 min 7 sec) 
Heartbeat CPU  0 instructions:  230000002 cycles:  252235623 heartbeat IPC: 0.74626 cumulative IPC: 0.74586 (Simulation time: 0 hr 11 min 10 sec) 
Heartbeat CPU  0 instructions:  231000003 cycles:  253573699 heartbeat IPC: 0.74734 cumulative IPC: 0.74588 (Simulation time: 0 hr 11 min 14 sec) 
Heartbeat CPU  0 instructions:  232000000 cycles:  254931829 heartbeat IPC: 0.73630 cumulative IPC: 0.74580 (Simulation time: 0 hr 11 min 17 sec) 
Heartbeat CPU  0 instructions:  233000001 cycles:  256294884 heartbeat IPC: 0.73365 cumulative IPC: 0.74571 (Simulation time: 0 hr 11 min 20 sec) 
Heartbeat CPU  0 instructions:  234000003 cycles:  257665517 heartbeat IPC: 0.72959 cumulative IPC: 0.74559 (Simulation time: 0 hr 11 min 23 sec) 
Heartbeat CPU  0 instructions:  235000001 cycles:  259002518 heartbeat IPC: 0.74794 cumulative IPC: 0.74560 (Simulation time: 0 hr 11 min 26 sec) 
Heartbeat CPU  0 instructions:  236000000 cycles:  260358605 heartbeat IPC: 0.73742 cumulative IPC: 0.74554 (Simulation time: 0 hr 11 min 29 sec) 
Heartbeat CPU  0 instructions:  237000001 cycles:  261708965 heartbeat IPC: 0.74054 cumulative IPC: 0.74551 (Simulation time: 0 hr 11 min 33 sec) 
Heartbeat CPU  0 instructions:  238000002 cycles:  263049113 heartbeat IPC: 0.74619 cumulative IPC: 0.74551 (Simulation time: 0 hr 11 min 36 sec) 
Heartbeat CPU  0 instructions:  239000002 cycles:  264397989 heartbeat IPC: 0.74136 cumulative IPC: 0.74548 (Simulation time: 0 hr 11 min 39 sec) 
Heartbeat CPU  0 instructions:  240000000 cycles:  265769522 heartbeat IPC: 0.72911 cumulative IPC: 0.74536 (Simulation time: 0 hr 11 min 42 sec) 
Heartbeat CPU  0 instructions:  241000001 cycles:  267126916 heartbeat IPC: 0.73671 cumulative IPC: 0.74530 (Simulation time: 0 hr 11 min 45 sec) 
Heartbeat CPU  0 instructions:  242000000 cycles:  268471713 heartbeat IPC: 0.74361 cumulative IPC: 0.74529 (Simulation time: 0 hr 11 min 48 sec) 
Heartbeat CPU  0 instructions:  243000002 cycles:  269808420 heartbeat IPC: 0.74811 cumulative IPC: 0.74531 (Simulation time: 0 hr 11 min 52 sec) 
Heartbeat CPU  0 instructions:  244000000 cycles:  271190525 heartbeat IPC: 0.72353 cumulative IPC: 0.74515 (Simulation time: 0 hr 11 min 55 sec) 
Heartbeat CPU  0 instructions:  245000000 cycles:  272536960 heartbeat IPC: 0.74270 cumulative IPC: 0.74513 (Simulation time: 0 hr 11 min 58 sec) 
Heartbeat CPU  0 instructions:  246000003 cycles:  273912060 heartbeat IPC: 0.72722 cumulative IPC: 0.74501 (Simulation time: 0 hr 12 min 1 sec) 
Heartbeat CPU  0 instructions:  247000001 cycles:  275253530 heartbeat IPC: 0.74545 cumulative IPC: 0.74501 (Simulation time: 0 hr 12 min 4 sec) 
Heartbeat CPU  0 instructions:  248000000 cycles:  276593435 heartbeat IPC: 0.74632 cumulative IPC: 0.74502 (Simulation time: 0 hr 12 min 8 sec) 
Heartbeat CPU  0 instructions:  249000001 cycles:  277969870 heartbeat IPC: 0.72652 cumulative IPC: 0.74489 (Simulation time: 0 hr 12 min 11 sec) 
Heartbeat CPU  0 instructions:  250000001 cycles:  279327959 heartbeat IPC: 0.73633 cumulative IPC: 0.74484 (Simulation time: 0 hr 12 min 14 sec) 
Heartbeat CPU  0 instructions:  251000001 cycles:  280854705 heartbeat IPC: 0.65499 cumulative IPC: 0.74416 (Simulation time: 0 hr 12 min 17 sec) 
Heartbeat CPU  0 instructions:  252000000 cycles:  282571713 heartbeat IPC: 0.58241 cumulative IPC: 0.74280 (Simulation time: 0 hr 12 min 19 sec) 
Heartbeat CPU  0 instructions:  253000000 cycles:  284128817 heartbeat IPC: 0.64222 cumulative IPC: 0.74204 (Simulation time: 0 hr 12 min 22 sec) 
Heartbeat CPU  0 instructions:  254000003 cycles:  285581237 heartbeat IPC: 0.68851 cumulative IPC: 0.74167 (Simulation time: 0 hr 12 min 24 sec) 
Heartbeat CPU  0 instructions:  255000002 cycles:  287032682 heartbeat IPC: 0.68897 cumulative IPC: 0.74130 (Simulation time: 0 hr 12 min 27 sec) 
Heartbeat CPU  0 instructions:  256000000 cycles:  290937830 heartbeat IPC: 0.25607 cumulative IPC: 0.73241 (Simulation time: 0 hr 12 min 30 sec) 
Heartbeat CPU  0 instructions:  257000000 cycles:  292650566 heartbeat IPC: 0.58386 cumulative IPC: 0.73122 (Simulation time: 0 hr 12 min 33 sec) 
Heartbeat CPU  0 instructions:  258000001 cycles:  294198684 heartbeat IPC: 0.64595 cumulative IPC: 0.73061 (Simulation time: 0 hr 12 min 35 sec) 
Heartbeat CPU  0 instructions:  259000002 cycles:  295652966 heartbeat IPC: 0.68763 cumulative IPC: 0.73032 (Simulation time: 0 hr 12 min 38 sec) 
Heartbeat CPU  0 instructions:  260000000 cycles:  297106134 heartbeat IPC: 0.68815 cumulative IPC: 0.73004 (Simulation time: 0 hr 12 min 40 sec) 
Heartbeat CPU  0 instructions:  261000000 cycles:  300831265 heartbeat IPC: 0.26845 cumulative IPC: 0.72233 (Simulation time: 0 hr 12 min 44 sec) 
Heartbeat CPU  0 instructions:  262000003 cycles:  302546304 heartbeat IPC: 0.58308 cumulative IPC: 0.72127 (Simulation time: 0 hr 12 min 46 sec) 
Heartbeat CPU  0 instructions:  263000001 cycles:  304107337 heartbeat IPC: 0.64060 cumulative IPC: 0.72071 (Simulation time: 0 hr 12 min 49 sec) 
Heartbeat CPU  0 instructions:  264000000 cycles:  305562173 heartbeat IPC: 0.68736 cumulative IPC: 0.72050 (Simulation time: 0 hr 12 min 51 sec) 
Heartbeat CPU  0 instructions:  265000001 cycles:  307015791 heartbeat IPC: 0.68794 cumulative IPC: 0.72029 (Simulation time: 0 hr 12 min 54 sec) 
Heartbeat CPU  0 instructions:  266000001 cycles:  310762564 heartbeat IPC: 0.26690 cumulative IPC: 0.71299 (Simulation time: 0 hr 12 min 57 sec) 
Heartbeat CPU  0 instructions:  267000003 cycles:  312448676 heartbeat IPC: 0.59308 cumulative IPC: 0.71213 (Simulation time: 0 hr 13 min 0 sec) 
Heartbeat CPU  0 instructions:  268000000 cycles:  314011327 heartbeat IPC: 0.63994 cumulative IPC: 0.71165 (Simulation time: 0 hr 13 min 2 sec) 
Heartbeat CPU  0 instructions:  269000002 cycles:  315463901 heartbeat IPC: 0.68843 cumulative IPC: 0.71151 (Simulation time: 0 hr 13 min 5 sec) 
Heartbeat CPU  0 instructions:  270000003 cycles:  316915096 heartbeat IPC: 0.68909 cumulative IPC: 0.71137 (Simulation time: 0 hr 13 min 7 sec) 
Heartbeat CPU  0 instructions:  271000000 cycles:  320864115 heartbeat IPC: 0.25323 cumulative IPC: 0.70393 (Simulation time: 0 hr 13 min 11 sec) 
Heartbeat CPU  0 instructions:  272000000 cycles:  322555393 heartbeat IPC: 0.59127 cumulative IPC: 0.70315 (Simulation time: 0 hr 13 min 13 sec) 
Heartbeat CPU  0 instructions:  273000000 cycles:  324122231 heartbeat IPC: 0.63823 cumulative IPC: 0.70273 (Simulation time: 0 hr 13 min 16 sec) 
Heartbeat CPU  0 instructions:  274000001 cycles:  325575365 heartbeat IPC: 0.68817 cumulative IPC: 0.70265 (Simulation time: 0 hr 13 min 18 sec) 
Heartbeat CPU  0 instructions:  275000000 cycles:  327026986 heartbeat IPC: 0.68888 cumulative IPC: 0.70257 (Simulation time: 0 hr 13 min 21 sec) 
Heartbeat CPU  0 instructions:  276000000 cycles:  328086135 heartbeat IPC: 0.94415 cumulative IPC: 0.70359 (Simulation time: 0 hr 13 min 23 sec) 
Heartbeat CPU  0 instructions:  277000000 cycles:  329742766 heartbeat IPC: 0.60363 cumulative IPC: 0.70293 (Simulation time: 0 hr 13 min 25 sec) 
Heartbeat CPU  0 instructions:  278000000 cycles:  331310407 heartbeat IPC: 0.63790 cumulative IPC: 0.70253 (Simulation time: 0 hr 13 min 28 sec) 
Heartbeat CPU  0 instructions:  279000000 cycles:  332762902 heartbeat IPC: 0.68847 cumulative IPC: 0.70245 (Simulation time: 0 hr 13 min 30 sec) 
Heartbeat CPU  0 instructions:  280000000 cycles:  334214147 heartbeat IPC: 0.68906 cumulative IPC: 0.70238 (Simulation time: 0 hr 13 min 33 sec) 
Heartbeat CPU  0 instructions:  281000000 cycles:  335299192 heartbeat IPC: 0.92162 cumulative IPC: 0.70330 (Simulation time: 0 hr 13 min 35 sec) 
Heartbeat CPU  0 instructions:  282000000 cycles:  336961483 heartbeat IPC: 0.60158 cumulative IPC: 0.70265 (Simulation time: 0 hr 13 min 38 sec) 
Heartbeat CPU  0 instructions:  283000001 cycles:  338530942 heartbeat IPC: 0.63716 cumulative IPC: 0.70225 (Simulation time: 0 hr 13 min 40 sec) 
Heartbeat CPU  0 instructions:  284000000 cycles:  339982396 heartbeat IPC: 0.68896 cumulative IPC: 0.70218 (Simulation time: 0 hr 13 min 42 sec) 
Heartbeat CPU  0 instructions:  285000000 cycles:  341433838 heartbeat IPC: 0.68897 cumulative IPC: 0.70211 (Simulation time: 0 hr 13 min 45 sec) 
Heartbeat CPU  0 instructions:  286000002 cycles:  342448679 heartbeat IPC: 0.98538 cumulative IPC: 0.70319 (Simulation time: 0 hr 13 min 47 sec) 
Heartbeat CPU  0 instructions:  287000000 cycles:  344118939 heartbeat IPC: 0.59871 cumulative IPC: 0.70254 (Simulation time: 0 hr 13 min 50 sec) 
Heartbeat CPU  0 instructions:  288000000 cycles:  345680597 heartbeat IPC: 0.64035 cumulative IPC: 0.70218 (Simulation time: 0 hr 13 min 52 sec) 
Heartbeat CPU  0 instructions:  289000001 cycles:  347133674 heartbeat IPC: 0.68820 cumulative IPC: 0.70210 (Simulation time: 0 hr 13 min 55 sec) 
Heartbeat CPU  0 instructions:  290000001 cycles:  348586723 heartbeat IPC: 0.68821 cumulative IPC: 0.70203 (Simulation time: 0 hr 13 min 57 sec) 
Heartbeat CPU  0 instructions:  291000001 cycles:  349557790 heartbeat IPC: 1.02980 cumulative IPC: 0.70320 (Simulation time: 0 hr 13 min 59 sec) 
Heartbeat CPU  0 instructions:  292000000 cycles:  351189374 heartbeat IPC: 0.61290 cumulative IPC: 0.70266 (Simulation time: 0 hr 14 min 2 sec) 
Heartbeat CPU  0 instructions:  293000001 cycles:  352902670 heartbeat IPC: 0.58367 cumulative IPC: 0.70192 (Simulation time: 0 hr 14 min 4 sec) 
Heartbeat CPU  0 instructions:  294000003 cycles:  354615986 heartbeat IPC: 0.58366 cumulative IPC: 0.70118 (Simulation time: 0 hr 14 min 7 sec) 
Heartbeat CPU  0 instructions:  295000003 cycles:  355889002 heartbeat IPC: 0.78554 cumulative IPC: 0.70157 (Simulation time: 0 hr 14 min 9 sec) 
Heartbeat CPU  0 instructions:  296000000 cycles:  357257334 heartbeat IPC: 0.73081 cumulative IPC: 0.70171 (Simulation time: 0 hr 14 min 12 sec) 
Heartbeat CPU  0 instructions:  297000001 cycles:  358973780 heartbeat IPC: 0.58260 cumulative IPC: 0.70099 (Simulation time: 0 hr 14 min 14 sec) 
Heartbeat CPU  0 instructions:  298000002 cycles:  360690052 heartbeat IPC: 0.58266 cumulative IPC: 0.70027 (Simulation time: 0 hr 14 min 17 sec) 
Heartbeat CPU  0 instructions:  299000002 cycles:  362161399 heartbeat IPC: 0.67965 cumulative IPC: 0.70016 (Simulation time: 0 hr 14 min 19 sec) 
Heartbeat CPU  0 instructions:  300000000 cycles:  363148762 heartbeat IPC: 1.01280 cumulative IPC: 0.70124 (Simulation time: 0 hr 14 min 21 sec) 
Heartbeat CPU  0 instructions:  301000000 cycles:  364600263 heartbeat IPC: 0.68894 cumulative IPC: 0.70118 (Simulation time: 0 hr 14 min 24 sec) 
Heartbeat CPU  0 instructions:  302000001 cycles:  366051581 heartbeat IPC: 0.68903 cumulative IPC: 0.70112 (Simulation time: 0 hr 14 min 26 sec) 
Heartbeat CPU  0 instructions:  303000000 cycles:  367502960 heartbeat IPC: 0.68900 cumulative IPC: 0.70106 (Simulation time: 0 hr 14 min 29 sec) 
Heartbeat CPU  0 instructions:  304000000 cycles:  368954263 heartbeat IPC: 0.68904 cumulative IPC: 0.70100 (Simulation time: 0 hr 14 min 31 sec) 
Heartbeat CPU  0 instructions:  305000003 cycles:  369861774 heartbeat IPC: 1.10192 cumulative IPC: 0.70225 (Simulation time: 0 hr 14 min 33 sec) 
Heartbeat CPU  0 instructions:  306000001 cycles:  371208739 heartbeat IPC: 0.74241 cumulative IPC: 0.70243 (Simulation time: 0 hr 14 min 35 sec) 
Heartbeat CPU  0 instructions:  307000001 cycles:  372661826 heartbeat IPC: 0.68819 cumulative IPC: 0.70236 (Simulation time: 0 hr 14 min 38 sec) 
Heartbeat CPU  0 instructions:  308000000 cycles:  374114877 heartbeat IPC: 0.68821 cumulative IPC: 0.70229 (Simulation time: 0 hr 14 min 40 sec) 
Heartbeat CPU  0 instructions:  309000003 cycles:  375567958 heartbeat IPC: 0.68819 cumulative IPC: 0.70222 (Simulation time: 0 hr 14 min 43 sec) 
Heartbeat CPU  0 instructions:  310000002 cycles:  376855079 heartbeat IPC: 0.77693 cumulative IPC: 0.70254 (Simulation time: 0 hr 14 min 45 sec) 
Heartbeat CPU  0 instructions:  311000000 cycles:  379042824 heartbeat IPC: 0.45709 cumulative IPC: 0.70076 (Simulation time: 0 hr 14 min 48 sec) 
Heartbeat CPU  0 instructions:  312000000 cycles:  381627890 heartbeat IPC: 0.38684 cumulative IPC: 0.69809 (Simulation time: 0 hr 14 min 52 sec) 
Heartbeat CPU  0 instructions:  313000002 cycles:  384229481 heartbeat IPC: 0.38438 cumulative IPC: 0.69542 (Simulation time: 0 hr 14 min 56 sec) 
Heartbeat CPU  0 instructions:  314000002 cycles:  386830682 heartbeat IPC: 0.38444 cumulative IPC: 0.69280 (Simulation time: 0 hr 15 min 0 sec) 
Heartbeat CPU  0 instructions:  315000001 cycles:  389418983 heartbeat IPC: 0.38635 cumulative IPC: 0.69026 (Simulation time: 0 hr 15 min 3 sec) 
Heartbeat CPU  0 instructions:  316000000 cycles:  392013731 heartbeat IPC: 0.38539 cumulative IPC: 0.68774 (Simulation time: 0 hr 15 min 7 sec) 
Heartbeat CPU  0 instructions:  317000002 cycles:  394601176 heartbeat IPC: 0.38648 cumulative IPC: 0.68528 (Simulation time: 0 hr 15 min 11 sec) 
Heartbeat CPU  0 instructions:  318000001 cycles:  397175601 heartbeat IPC: 0.38844 cumulative IPC: 0.68288 (Simulation time: 0 hr 15 min 15 sec) 
Heartbeat CPU  0 instructions:  319000003 cycles:  399766320 heartbeat IPC: 0.38599 cumulative IPC: 0.68049 (Simulation time: 0 hr 15 min 19 sec) 
Heartbeat CPU  0 instructions:  320000000 cycles:  402346596 heartbeat IPC: 0.38755 cumulative IPC: 0.67816 (Simulation time: 0 hr 15 min 22 sec) 
Heartbeat CPU  0 instructions:  321000001 cycles:  404925976 heartbeat IPC: 0.38769 cumulative IPC: 0.67587 (Simulation time: 0 hr 15 min 26 sec) 
Heartbeat CPU  0 instructions:  322000001 cycles:  407500702 heartbeat IPC: 0.38839 cumulative IPC: 0.67363 (Simulation time: 0 hr 15 min 30 sec) 
Heartbeat CPU  0 instructions:  323000001 cycles:  410245906 heartbeat IPC: 0.36427 cumulative IPC: 0.67107 (Simulation time: 0 hr 15 min 34 sec) 
Heartbeat CPU  0 instructions:  324000000 cycles:  412849742 heartbeat IPC: 0.38405 cumulative IPC: 0.66884 (Simulation time: 0 hr 15 min 37 sec) 
Heartbeat CPU  0 instructions:  325000003 cycles:  415472433 heartbeat IPC: 0.38129 cumulative IPC: 0.66660 (Simulation time: 0 hr 15 min 41 sec) 
Heartbeat CPU  0 instructions:  326000000 cycles:  418080837 heartbeat IPC: 0.38338 cumulative IPC: 0.66443 (Simulation time: 0 hr 15 min 45 sec) 
Heartbeat CPU  0 instructions:  327000003 cycles:  420685634 heartbeat IPC: 0.38391 cumulative IPC: 0.66230 (Simulation time: 0 hr 15 min 49 sec) 
Heartbeat CPU  0 instructions:  328000000 cycles:  423316133 heartbeat IPC: 0.38015 cumulative IPC: 0.66015 (Simulation time: 0 hr 15 min 53 sec) 
Heartbeat CPU  0 instructions:  329000001 cycles:  425920621 heartbeat IPC: 0.38395 cumulative IPC: 0.65808 (Simulation time: 0 hr 15 min 56 sec) 
Heartbeat CPU  0 instructions:  330000000 cycles:  428527692 heartbeat IPC: 0.38357 cumulative IPC: 0.65604 (Simulation time: 0 hr 16 min 0 sec) 
Heartbeat CPU  0 instructions:  331000003 cycles:  431144983 heartbeat IPC: 0.38208 cumulative IPC: 0.65401 (Simulation time: 0 hr 16 min 4 sec) 
Heartbeat CPU  0 instructions:  332000000 cycles:  433755790 heartbeat IPC: 0.38302 cumulative IPC: 0.65202 (Simulation time: 0 hr 16 min 8 sec) 
Heartbeat CPU  0 instructions:  333000000 cycles:  436354592 heartbeat IPC: 0.38479 cumulative IPC: 0.65009 (Simulation time: 0 hr 16 min 12 sec) 
Heartbeat CPU  0 instructions:  334000002 cycles:  438954570 heartbeat IPC: 0.38462 cumulative IPC: 0.64818 (Simulation time: 0 hr 16 min 15 sec) 
Heartbeat CPU  0 instructions:  335000001 cycles:  441392612 heartbeat IPC: 0.41016 cumulative IPC: 0.64658 (Simulation time: 0 hr 16 min 19 sec) 
Heartbeat CPU  0 instructions:  336000000 cycles:  442905233 heartbeat IPC: 0.66110 cumulative IPC: 0.64664 (Simulation time: 0 hr 16 min 23 sec) 
Heartbeat CPU  0 instructions:  337000002 cycles:  444424746 heartbeat IPC: 0.65811 cumulative IPC: 0.64669 (Simulation time: 0 hr 16 min 26 sec) 
Heartbeat CPU  0 instructions:  338000000 cycles:  445956888 heartbeat IPC: 0.65268 cumulative IPC: 0.64671 (Simulation time: 0 hr 16 min 29 sec) 
Heartbeat CPU  0 instructions:  339000000 cycles:  447472757 heartbeat IPC: 0.65969 cumulative IPC: 0.64676 (Simulation time: 0 hr 16 min 33 sec) 
Heartbeat CPU  0 instructions:  340000000 cycles:  448970611 heartbeat IPC: 0.66762 cumulative IPC: 0.64685 (Simulation time: 0 hr 16 min 36 sec) 
Heartbeat CPU  0 instructions:  341000002 cycles:  450473113 heartbeat IPC: 0.66556 cumulative IPC: 0.64692 (Simulation time: 0 hr 16 min 40 sec) 
Heartbeat CPU  0 instructions:  342000002 cycles:  451978910 heartbeat IPC: 0.66410 cumulative IPC: 0.64699 (Simulation time: 0 hr 16 min 43 sec) 
Heartbeat CPU  0 instructions:  343000003 cycles:  453502491 heartbeat IPC: 0.65635 cumulative IPC: 0.64703 (Simulation time: 0 hr 16 min 47 sec) 
Heartbeat CPU  0 instructions:  344000000 cycles:  455045159 heartbeat IPC: 0.64823 cumulative IPC: 0.64704 (Simulation time: 0 hr 16 min 50 sec) 
Heartbeat CPU  0 instructions:  345000001 cycles:  456587987 heartbeat IPC: 0.64816 cumulative IPC: 0.64704 (Simulation time: 0 hr 16 min 53 sec) 
Heartbeat CPU  0 instructions:  346000002 cycles:  458154374 heartbeat IPC: 0.63841 cumulative IPC: 0.64701 (Simulation time: 0 hr 16 min 57 sec) 
Heartbeat CPU  0 instructions:  347000000 cycles:  459923157 heartbeat IPC: 0.56536 cumulative IPC: 0.64663 (Simulation time: 0 hr 17 min 0 sec) 
Heartbeat CPU  0 instructions:  348000000 cycles:  461416505 heartbeat IPC: 0.66964 cumulative IPC: 0.64672 (Simulation time: 0 hr 17 min 4 sec) 
Heartbeat CPU  0 instructions:  349000001 cycles:  462903360 heartbeat IPC: 0.67256 cumulative IPC: 0.64682 (Simulation time: 0 hr 17 min 7 sec) 
Heartbeat CPU  0 instructions:  350000001 cycles:  464425742 heartbeat IPC: 0.65687 cumulative IPC: 0.64686 (Simulation time: 0 hr 17 min 11 sec) 
Heartbeat CPU  0 instructions:  351000002 cycles:  465964583 heartbeat IPC: 0.64984 cumulative IPC: 0.64687 (Simulation time: 0 hr 17 min 14 sec) 
Heartbeat CPU  0 instructions:  352000000 cycles:  467538662 heartbeat IPC: 0.63529 cumulative IPC: 0.64682 (Simulation time: 0 hr 17 min 17 sec) 
Heartbeat CPU  0 instructions:  353000002 cycles:  469107340 heartbeat IPC: 0.63748 cumulative IPC: 0.64678 (Simulation time: 0 hr 17 min 21 sec) 
Heartbeat CPU  0 instructions:  354000001 cycles:  470661046 heartbeat IPC: 0.64362 cumulative IPC: 0.64677 (Simulation time: 0 hr 17 min 24 sec) 
Heartbeat CPU  0 instructions:  355000002 cycles:  472201966 heartbeat IPC: 0.64896 cumulative IPC: 0.64678 (Simulation time: 0 hr 17 min 28 sec) 
Heartbeat CPU  0 instructions:  356000000 cycles:  473752763 heartbeat IPC: 0.64483 cumulative IPC: 0.64677 (Simulation time: 0 hr 17 min 31 sec) 
Heartbeat CPU  0 instructions:  357000001 cycles:  475303829 heartbeat IPC: 0.64472 cumulative IPC: 0.64676 (Simulation time: 0 hr 17 min 35 sec) 
Heartbeat CPU  0 instructions:  358000003 cycles:  476846385 heartbeat IPC: 0.64828 cumulative IPC: 0.64677 (Simulation time: 0 hr 17 min 38 sec) 
Heartbeat CPU  0 instructions:  359000002 cycles:  478350054 heartbeat IPC: 0.66504 cumulative IPC: 0.64684 (Simulation time: 0 hr 17 min 42 sec) 
Heartbeat CPU  0 instructions:  360000000 cycles:  479795431 heartbeat IPC: 0.69186 cumulative IPC: 0.64700 (Simulation time: 0 hr 17 min 45 sec) 
Heartbeat CPU  0 instructions:  361000000 cycles:  481078416 heartbeat IPC: 0.77943 cumulative IPC: 0.64742 (Simulation time: 0 hr 17 min 48 sec) 
Heartbeat CPU  0 instructions:  362000002 cycles:  482348407 heartbeat IPC: 0.78741 cumulative IPC: 0.64786 (Simulation time: 0 hr 17 min 51 sec) 
Heartbeat CPU  0 instructions:  363000002 cycles:  483619243 heartbeat IPC: 0.78688 cumulative IPC: 0.64830 (Simulation time: 0 hr 17 min 54 sec) 
Heartbeat CPU  0 instructions:  364000000 cycles:  484890701 heartbeat IPC: 0.78650 cumulative IPC: 0.64873 (Simulation time: 0 hr 17 min 57 sec) 
Heartbeat CPU  0 instructions:  365000002 cycles:  486171756 heartbeat IPC: 0.78061 cumulative IPC: 0.64914 (Simulation time: 0 hr 18 min 1 sec) 
Heartbeat CPU  0 instructions:  366000002 cycles:  487457040 heartbeat IPC: 0.77804 cumulative IPC: 0.64955 (Simulation time: 0 hr 18 min 4 sec) 
Heartbeat CPU  0 instructions:  367000001 cycles:  488742100 heartbeat IPC: 0.77817 cumulative IPC: 0.64995 (Simulation time: 0 hr 18 min 7 sec) 
Heartbeat CPU  0 instructions:  368000000 cycles:  490039513 heartbeat IPC: 0.77076 cumulative IPC: 0.65033 (Simulation time: 0 hr 18 min 10 sec) 
Heartbeat CPU  0 instructions:  369000000 cycles:  491346829 heartbeat IPC: 0.76493 cumulative IPC: 0.65069 (Simulation time: 0 hr 18 min 13 sec) 
Heartbeat CPU  0 instructions:  370000003 cycles:  492657649 heartbeat IPC: 0.76288 cumulative IPC: 0.65105 (Simulation time: 0 hr 18 min 16 sec) 
Heartbeat CPU  0 instructions:  371000001 cycles:  493972723 heartbeat IPC: 0.76041 cumulative IPC: 0.65139 (Simulation time: 0 hr 18 min 20 sec) 
Heartbeat CPU  0 instructions:  372000000 cycles:  495280979 heartbeat IPC: 0.76438 cumulative IPC: 0.65175 (Simulation time: 0 hr 18 min 23 sec) 
Heartbeat CPU  0 instructions:  373000003 cycles:  496589149 heartbeat IPC: 0.76443 cumulative IPC: 0.65210 (Simulation time: 0 hr 18 min 26 sec) 
Heartbeat CPU  0 instructions:  374000000 cycles:  497896171 heartbeat IPC: 0.76510 cumulative IPC: 0.65245 (Simulation time: 0 hr 18 min 29 sec) 
Heartbeat CPU  0 instructions:  375000001 cycles:  499371058 heartbeat IPC: 0.67802 cumulative IPC: 0.65254 (Simulation time: 0 hr 18 min 32 sec) 
Heartbeat CPU  0 instructions:  376000000 cycles:  500618310 heartbeat IPC: 0.80176 cumulative IPC: 0.65298 (Simulation time: 0 hr 18 min 35 sec) 
Heartbeat CPU  0 instructions:  377000001 cycles:  501869244 heartbeat IPC: 0.79940 cumulative IPC: 0.65341 (Simulation time: 0 hr 18 min 39 sec) 
Heartbeat CPU  0 instructions:  378000001 cycles:  503129417 heartbeat IPC: 0.79354 cumulative IPC: 0.65383 (Simulation time: 0 hr 18 min 42 sec) 
Heartbeat CPU  0 instructions:  379000001 cycles:  504395333 heartbeat IPC: 0.78994 cumulative IPC: 0.65423 (Simulation time: 0 hr 18 min 45 sec) 
Heartbeat CPU  0 instructions:  380000000 cycles:  505658997 heartbeat IPC: 0.79135 cumulative IPC: 0.65464 (Simulation time: 0 hr 18 min 48 sec) 
Heartbeat CPU  0 instructions:  381000003 cycles:  506931242 heartbeat IPC: 0.78601 cumulative IPC: 0.65503 (Simulation time: 0 hr 18 min 51 sec) 
Heartbeat CPU  0 instructions:  382000003 cycles:  508200733 heartbeat IPC: 0.78772 cumulative IPC: 0.65542 (Simulation time: 0 hr 18 min 54 sec) 
Heartbeat CPU  0 instructions:  383000003 cycles:  509471649 heartbeat IPC: 0.78683 cumulative IPC: 0.65581 (Simulation time: 0 hr 18 min 57 sec) 
Heartbeat CPU  0 instructions:  384000000 cycles:  510744181 heartbeat IPC: 0.78583 cumulative IPC: 0.65619 (Simulation time: 0 hr 19 min 1 sec) 
Heartbeat CPU  0 instructions:  385000001 cycles:  512015652 heartbeat IPC: 0.78649 cumulative IPC: 0.65657 (Simulation time: 0 hr 19 min 4 sec) 
Heartbeat CPU  0 instructions:  386000003 cycles:  513284803 heartbeat IPC: 0.78793 cumulative IPC: 0.65695 (Simulation time: 0 hr 19 min 7 sec) 
Heartbeat CPU  0 instructions:  387000003 cycles:  514547726 heartbeat IPC: 0.79181 cumulative IPC: 0.65734 (Simulation time: 0 hr 19 min 10 sec) 
Heartbeat CPU  0 instructions:  388000000 cycles:  515819918 heartbeat IPC: 0.78604 cumulative IPC: 0.65772 (Simulation time: 0 hr 19 min 13 sec) 
Heartbeat CPU  0 instructions:  389000003 cycles:  517081589 heartbeat IPC: 0.79260 cumulative IPC: 0.65810 (Simulation time: 0 hr 19 min 16 sec) 
Heartbeat CPU  0 instructions:  390000000 cycles:  518863969 heartbeat IPC: 0.56105 cumulative IPC: 0.65771 (Simulation time: 0 hr 19 min 20 sec) 
Heartbeat CPU  0 instructions:  391000003 cycles:  521438431 heartbeat IPC: 0.38843 cumulative IPC: 0.65615 (Simulation time: 0 hr 19 min 24 sec) 
Heartbeat CPU  0 instructions:  392000000 cycles:  524004407 heartbeat IPC: 0.38971 cumulative IPC: 0.65462 (Simulation time: 0 hr 19 min 27 sec) 
Heartbeat CPU  0 instructions:  393000003 cycles:  526561526 heartbeat IPC: 0.39107 cumulative IPC: 0.65311 (Simulation time: 0 hr 19 min 31 sec) 
Heartbeat CPU  0 instructions:  394000001 cycles:  529122073 heartbeat IPC: 0.39054 cumulative IPC: 0.65162 (Simulation time: 0 hr 19 min 35 sec) 
Heartbeat CPU  0 instructions:  395000002 cycles:  531680062 heartbeat IPC: 0.39093 cumulative IPC: 0.65015 (Simulation time: 0 hr 19 min 39 sec) 
Heartbeat CPU  0 instructions:  396000000 cycles:  534236685 heartbeat IPC: 0.39114 cumulative IPC: 0.64870 (Simulation time: 0 hr 19 min 43 sec) 
Heartbeat CPU  0 instructions:  397000002 cycles:  536792808 heartbeat IPC: 0.39122 cumulative IPC: 0.64727 (Simulation time: 0 hr 19 min 47 sec) 
Heartbeat CPU  0 instructions:  398000001 cycles:  539361092 heartbeat IPC: 0.38936 cumulative IPC: 0.64583 (Simulation time: 0 hr 19 min 50 sec) 
Heartbeat CPU  0 instructions:  399000001 cycles:  541927464 heartbeat IPC: 0.38966 cumulative IPC: 0.64442 (Simulation time: 0 hr 19 min 54 sec) 
Heartbeat CPU  0 instructions:  400000000 cycles:  544496887 heartbeat IPC: 0.38919 cumulative IPC: 0.64301 (Simulation time: 0 hr 19 min 58 sec) 
Heartbeat CPU  0 instructions:  401000001 cycles:  547055918 heartbeat IPC: 0.39077 cumulative IPC: 0.64163 (Simulation time: 0 hr 20 min 2 sec) 
Heartbeat CPU  0 instructions:  402000000 cycles:  549726057 heartbeat IPC: 0.37451 cumulative IPC: 0.64012 (Simulation time: 0 hr 20 min 6 sec) 
Heartbeat CPU  0 instructions:  403000000 cycles:  552303812 heartbeat IPC: 0.38793 cumulative IPC: 0.63875 (Simulation time: 0 hr 20 min 10 sec) 
Heartbeat CPU  0 instructions:  404000000 cycles:  554903828 heartbeat IPC: 0.38461 cumulative IPC: 0.63737 (Simulation time: 0 hr 20 min 13 sec) 
Heartbeat CPU  0 instructions:  405000000 cycles:  557487676 heartbeat IPC: 0.38702 cumulative IPC: 0.63602 (Simulation time: 0 hr 20 min 17 sec) 
Heartbeat CPU  0 instructions:  406000000 cycles:  560064117 heartbeat IPC: 0.38813 cumulative IPC: 0.63469 (Simulation time: 0 hr 20 min 21 sec) 
Heartbeat CPU  0 instructions:  407000002 cycles:  562656472 heartbeat IPC: 0.38575 cumulative IPC: 0.63336 (Simulation time: 0 hr 20 min 25 sec) 
Heartbeat CPU  0 instructions:  408000000 cycles:  565244225 heartbeat IPC: 0.38643 cumulative IPC: 0.63205 (Simulation time: 0 hr 20 min 29 sec) 
Heartbeat CPU  0 instructions:  409000002 cycles:  567814195 heartbeat IPC: 0.38911 cumulative IPC: 0.63078 (Simulation time: 0 hr 20 min 32 sec) 
Heartbeat CPU  0 instructions:  410000003 cycles:  570408354 heartbeat IPC: 0.38548 cumulative IPC: 0.62948 (Simulation time: 0 hr 20 min 36 sec) 
Heartbeat CPU  0 instructions:  411000000 cycles:  572988482 heartbeat IPC: 0.38758 cumulative IPC: 0.62822 (Simulation time: 0 hr 20 min 40 sec) 
Heartbeat CPU  0 instructions:  412000000 cycles:  575558194 heartbeat IPC: 0.38915 cumulative IPC: 0.62699 (Simulation time: 0 hr 20 min 44 sec) 
Heartbeat CPU  0 instructions:  413000002 cycles:  578134050 heartbeat IPC: 0.38822 cumulative IPC: 0.62576 (Simulation time: 0 hr 20 min 48 sec) 
Heartbeat CPU  0 instructions:  414000002 cycles:  580782966 heartbeat IPC: 0.37751 cumulative IPC: 0.62445 (Simulation time: 0 hr 20 min 52 sec) 
Heartbeat CPU  0 instructions:  415000000 cycles:  582256901 heartbeat IPC: 0.67845 cumulative IPC: 0.62461 (Simulation time: 0 hr 20 min 55 sec) 
Heartbeat CPU  0 instructions:  416000000 cycles:  583672853 heartbeat IPC: 0.70624 cumulative IPC: 0.62484 (Simulation time: 0 hr 20 min 58 sec) 
Heartbeat CPU  0 instructions:  417000003 cycles:  585086770 heartbeat IPC: 0.70726 cumulative IPC: 0.62507 (Simulation time: 0 hr 21 min 2 sec) 
Heartbeat CPU  0 instructions:  418000000 cycles:  586512583 heartbeat IPC: 0.70135 cumulative IPC: 0.62528 (Simulation time: 0 hr 21 min 5 sec) 
Heartbeat CPU  0 instructions:  419000002 cycles:  587948700 heartbeat IPC: 0.69632 cumulative IPC: 0.62548 (Simulation time: 0 hr 21 min 9 sec) 
Heartbeat CPU  0 instructions:  420000000 cycles:  589377419 heartbeat IPC: 0.69993 cumulative IPC: 0.62569 (Simulation time: 0 hr 21 min 12 sec) 
Heartbeat CPU  0 instructions:  421000000 cycles:  590806762 heartbeat IPC: 0.69962 cumulative IPC: 0.62589 (Simulation time: 0 hr 21 min 15 sec) 
Heartbeat CPU  0 instructions:  422000001 cycles:  592234317 heartbeat IPC: 0.70050 cumulative IPC: 0.62610 (Simulation time: 0 hr 21 min 19 sec) 
Heartbeat CPU  0 instructions:  423000003 cycles:  593656447 heartbeat IPC: 0.70317 cumulative IPC: 0.62631 (Simulation time: 0 hr 21 min 22 sec) 
Heartbeat CPU  0 instructions:  424000000 cycles:  595066536 heartbeat IPC: 0.70917 cumulative IPC: 0.62654 (Simulation time: 0 hr 21 min 25 sec) 
Heartbeat CPU  0 instructions:  425000003 cycles:  596469832 heartbeat IPC: 0.71261 cumulative IPC: 0.62677 (Simulation time: 0 hr 21 min 29 sec) 
Heartbeat CPU  0 instructions:  426000002 cycles:  597865473 heartbeat IPC: 0.71652 cumulative IPC: 0.62701 (Simulation time: 0 hr 21 min 32 sec) 
Heartbeat CPU  0 instructions:  427000003 cycles:  599584957 heartbeat IPC: 0.58157 cumulative IPC: 0.62686 (Simulation time: 0 hr 21 min 36 sec) 
Heartbeat CPU  0 instructions:  428000000 cycles:  600998880 heartbeat IPC: 0.70725 cumulative IPC: 0.62708 (Simulation time: 0 hr 21 min 39 sec) 
Heartbeat CPU  0 instructions:  429000001 cycles:  602397066 heartbeat IPC: 0.71521 cumulative IPC: 0.62732 (Simulation time: 0 hr 21 min 42 sec) 
Heartbeat CPU  0 instructions:  430000003 cycles:  603803249 heartbeat IPC: 0.71115 cumulative IPC: 0.62754 (Simulation time: 0 hr 21 min 46 sec) 
Heartbeat CPU  0 instructions:  431000001 cycles:  605203736 heartbeat IPC: 0.71404 cumulative IPC: 0.62777 (Simulation time: 0 hr 21 min 49 sec) 
Heartbeat CPU  0 instructions:  432000000 cycles:  606614019 heartbeat IPC: 0.70908 cumulative IPC: 0.62799 (Simulation time: 0 hr 21 min 52 sec) 
Heartbeat CPU  0 instructions:  433000001 cycles:  608014464 heartbeat IPC: 0.71406 cumulative IPC: 0.62822 (Simulation time: 0 hr 21 min 56 sec) 
Heartbeat CPU  0 instructions:  434000001 cycles:  609415325 heartbeat IPC: 0.71385 cumulative IPC: 0.62844 (Simulation time: 0 hr 21 min 59 sec) 
Heartbeat CPU  0 instructions:  435000000 cycles:  610827380 heartbeat IPC: 0.70819 cumulative IPC: 0.62865 (Simulation time: 0 hr 22 min 3 sec) 
Heartbeat CPU  0 instructions:  436000000 cycles:  612261559 heartbeat IPC: 0.69726 cumulative IPC: 0.62884 (Simulation time: 0 hr 22 min 6 sec) 
Heartbeat CPU  0 instructions:  437000000 cycles:  613670628 heartbeat IPC: 0.70969 cumulative IPC: 0.62905 (Simulation time: 0 hr 22 min 9 sec) 
Heartbeat CPU  0 instructions:  438000000 cycles:  615066883 heartbeat IPC: 0.71620 cumulative IPC: 0.62928 (Simulation time: 0 hr 22 min 13 sec) 
Heartbeat CPU  0 instructions:  439000002 cycles:  616698366 heartbeat IPC: 0.61294 cumulative IPC: 0.62923 (Simulation time: 0 hr 22 min 16 sec) 
Heartbeat CPU  0 instructions:  440000000 cycles:  618000824 heartbeat IPC: 0.76778 cumulative IPC: 0.62956 (Simulation time: 0 hr 22 min 19 sec) 
Heartbeat CPU  0 instructions:  441000001 cycles:  619306598 heartbeat IPC: 0.76583 cumulative IPC: 0.62989 (Simulation time: 0 hr 22 min 23 sec) 
Heartbeat CPU  0 instructions:  442000002 cycles:  620616933 heartbeat IPC: 0.76316 cumulative IPC: 0.63021 (Simulation time: 0 hr 22 min 26 sec) 
Heartbeat CPU  0 instructions:  443000000 cycles:  621926761 heartbeat IPC: 0.76346 cumulative IPC: 0.63053 (Simulation time: 0 hr 22 min 29 sec) 
Heartbeat CPU  0 instructions:  444000000 cycles:  623248009 heartbeat IPC: 0.75686 cumulative IPC: 0.63084 (Simulation time: 0 hr 22 min 32 sec) 
Heartbeat CPU  0 instructions:  445000000 cycles:  624569384 heartbeat IPC: 0.75679 cumulative IPC: 0.63114 (Simulation time: 0 hr 22 min 35 sec) 
Heartbeat CPU  0 instructions:  446000002 cycles:  625887896 heartbeat IPC: 0.75843 cumulative IPC: 0.63145 (Simulation time: 0 hr 22 min 39 sec) 
Heartbeat CPU  0 instructions:  447000000 cycles:  627197478 heartbeat IPC: 0.76360 cumulative IPC: 0.63176 (Simulation time: 0 hr 22 min 42 sec) 
Heartbeat CPU  0 instructions:  448000000 cycles:  628507320 heartbeat IPC: 0.76345 cumulative IPC: 0.63208 (Simulation time: 0 hr 22 min 45 sec) 
Heartbeat CPU  0 instructions:  449000003 cycles:  629829456 heartbeat IPC: 0.75635 cumulative IPC: 0.63237 (Simulation time: 0 hr 22 min 48 sec) 
Heartbeat CPU  0 instructions:  450000000 cycles:  631153367 heartbeat IPC: 0.75534 cumulative IPC: 0.63267 (Simulation time: 0 hr 22 min 52 sec) 
Heartbeat CPU  0 instructions:  451000001 cycles:  632473448 heartbeat IPC: 0.75753 cumulative IPC: 0.63297 (Simulation time: 0 hr 22 min 55 sec) 
Heartbeat CPU  0 instructions:  452000000 cycles:  633783420 heartbeat IPC: 0.76337 cumulative IPC: 0.63327 (Simulation time: 0 hr 22 min 58 sec) 
Heartbeat CPU  0 instructions:  453000003 cycles:  635095727 heartbeat IPC: 0.76202 cumulative IPC: 0.63358 (Simulation time: 0 hr 23 min 1 sec) 
Heartbeat CPU  0 instructions:  454000001 cycles:  636716388 heartbeat IPC: 0.61703 cumulative IPC: 0.63353 (Simulation time: 0 hr 23 min 5 sec) 
Heartbeat CPU  0 instructions:  455000003 cycles:  638018239 heartbeat IPC: 0.76814 cumulative IPC: 0.63384 (Simulation time: 0 hr 23 min 8 sec) 
Heartbeat CPU  0 instructions:  456000000 cycles:  639281985 heartbeat IPC: 0.79130 cumulative IPC: 0.63420 (Simulation time: 0 hr 23 min 11 sec) 
Heartbeat CPU  0 instructions:  457000001 cycles:  640553767 heartbeat IPC: 0.78630 cumulative IPC: 0.63454 (Simulation time: 0 hr 23 min 14 sec) 
Heartbeat CPU  0 instructions:  458000003 cycles:  641821711 heartbeat IPC: 0.78868 cumulative IPC: 0.63489 (Simulation time: 0 hr 23 min 17 sec) 
Heartbeat CPU  0 instructions:  459000001 cycles:  643086287 heartbeat IPC: 0.79078 cumulative IPC: 0.63524 (Simulation time: 0 hr 23 min 21 sec) 
Heartbeat CPU  0 instructions:  460000000 cycles:  644353082 heartbeat IPC: 0.78939 cumulative IPC: 0.63558 (Simulation time: 0 hr 23 min 24 sec) 
Heartbeat CPU  0 instructions:  461000003 cycles:  645619339 heartbeat IPC: 0.78973 cumulative IPC: 0.63592 (Simulation time: 0 hr 23 min 27 sec) 
Heartbeat CPU  0 instructions:  462000003 cycles:  646890150 heartbeat IPC: 0.78690 cumulative IPC: 0.63626 (Simulation time: 0 hr 23 min 30 sec) 
Heartbeat CPU  0 instructions:  463000001 cycles:  648161548 heartbeat IPC: 0.78653 cumulative IPC: 0.63660 (Simulation time: 0 hr 23 min 33 sec) 
Heartbeat CPU  0 instructions:  464000000 cycles:  649434601 heartbeat IPC: 0.78551 cumulative IPC: 0.63693 (Simulation time: 0 hr 23 min 36 sec) 
Heartbeat CPU  0 instructions:  465000001 cycles:  650708209 heartbeat IPC: 0.78517 cumulative IPC: 0.63726 (Simulation time: 0 hr 23 min 40 sec) 
Heartbeat CPU  0 instructions:  466000001 cycles:  651975241 heartbeat IPC: 0.78925 cumulative IPC: 0.63759 (Simulation time: 0 hr 23 min 43 sec) 
Heartbeat CPU  0 instructions:  467000003 cycles:  653238092 heartbeat IPC: 0.79186 cumulative IPC: 0.63793 (Simulation time: 0 hr 23 min 46 sec) 
Heartbeat CPU  0 instructions:  468000000 cycles:  654505007 heartbeat IPC: 0.78932 cumulative IPC: 0.63826 (Simulation time: 0 hr 23 min 49 sec) 
Heartbeat CPU  0 instructions:  469000002 cycles:  655965271 heartbeat IPC: 0.68481 cumulative IPC: 0.63838 (Simulation time: 0 hr 23 min 52 sec) 
Heartbeat CPU  0 instructions:  470000003 cycles:  658521624 heartbeat IPC: 0.39118 cumulative IPC: 0.63729 (Simulation time: 0 hr 23 min 56 sec) 
Heartbeat CPU  0 instructions:  471000001 cycles:  661036275 heartbeat IPC: 0.39767 cumulative IPC: 0.63626 (Simulation time: 0 hr 24 min 0 sec) 
Heartbeat CPU  0 instructions:  472000000 cycles:  663553926 heartbeat IPC: 0.39720 cumulative IPC: 0.63523 (Simulation time: 0 hr 24 min 4 sec) 
Heartbeat CPU  0 instructions:  473000003 cycles:  666065753 heartbeat IPC: 0.39812 cumulative IPC: 0.63422 (Simulation time: 0 hr 24 min 8 sec) 
Heartbeat CPU  0 instructions:  474000003 cycles:  668586832 heartbeat IPC: 0.39666 cumulative IPC: 0.63321 (Simulation time: 0 hr 24 min 11 sec) 
Heartbeat CPU  0 instructions:  475000002 cycles:  671102206 heartbeat IPC: 0.39755 cumulative IPC: 0.63221 (Simulation time: 0 hr 24 min 15 sec) 
Heartbeat CPU  0 instructions:  476000000 cycles:  673617513 heartbeat IPC: 0.39756 cumulative IPC: 0.63122 (Simulation time: 0 hr 24 min 19 sec) 
Heartbeat CPU  0 instructions:  477000003 cycles:  676132563 heartbeat IPC: 0.39761 cumulative IPC: 0.63023 (Simulation time: 0 hr 24 min 23 sec) 
Heartbeat CPU  0 instructions:  478000000 cycles:  678645286 heartbeat IPC: 0.39797 cumulative IPC: 0.62926 (Simulation time: 0 hr 24 min 27 sec) 
Heartbeat CPU  0 instructions:  479000003 cycles:  681167233 heartbeat IPC: 0.39652 cumulative IPC: 0.62829 (Simulation time: 0 hr 24 min 31 sec) 
Heartbeat CPU  0 instructions:  480000000 cycles:  683675451 heartbeat IPC: 0.39869 cumulative IPC: 0.62734 (Simulation time: 0 hr 24 min 34 sec) 
Heartbeat CPU  0 instructions:  481000001 cycles:  686247431 heartbeat IPC: 0.38881 cumulative IPC: 0.62633 (Simulation time: 0 hr 24 min 38 sec) 
Heartbeat CPU  0 instructions:  482000000 cycles:  688895523 heartbeat IPC: 0.37763 cumulative IPC: 0.62525 (Simulation time: 0 hr 24 min 42 sec) 
Heartbeat CPU  0 instructions:  483000001 cycles:  691461024 heartbeat IPC: 0.38979 cumulative IPC: 0.62427 (Simulation time: 0 hr 24 min 46 sec) 
Heartbeat CPU  0 instructions:  484000000 cycles:  694034185 heartbeat IPC: 0.38863 cumulative IPC: 0.62328 (Simulation time: 0 hr 24 min 50 sec) 
Heartbeat CPU  0 instructions:  485000001 cycles:  696601946 heartbeat IPC: 0.38944 cumulative IPC: 0.62231 (Simulation time: 0 hr 24 min 54 sec) 
Heartbeat CPU  0 instructions:  486000002 cycles:  699164999 heartbeat IPC: 0.39016 cumulative IPC: 0.62135 (Simulation time: 0 hr 24 min 57 sec) 
Heartbeat CPU  0 instructions:  487000003 cycles:  701729243 heartbeat IPC: 0.38998 cumulative IPC: 0.62040 (Simulation time: 0 hr 25 min 1 sec) 
Heartbeat CPU  0 instructions:  488000000 cycles:  704292684 heartbeat IPC: 0.39010 cumulative IPC: 0.61946 (Simulation time: 0 hr 25 min 5 sec) 
Heartbeat CPU  0 instructions:  489000002 cycles:  706856413 heartbeat IPC: 0.39006 cumulative IPC: 0.61853 (Simulation time: 0 hr 25 min 9 sec) 
Heartbeat CPU  0 instructions:  490000003 cycles:  709420355 heartbeat IPC: 0.39002 cumulative IPC: 0.61760 (Simulation time: 0 hr 25 min 13 sec) 
Heartbeat CPU  0 instructions:  491000003 cycles:  711983213 heartbeat IPC: 0.39019 cumulative IPC: 0.61668 (Simulation time: 0 hr 25 min 17 sec) 
Heartbeat CPU  0 instructions:  492000000 cycles:  714541355 heartbeat IPC: 0.39091 cumulative IPC: 0.61577 (Simulation time: 0 hr 25 min 20 sec) 
Heartbeat CPU  0 instructions:  493000002 cycles:  717079546 heartbeat IPC: 0.39398 cumulative IPC: 0.61489 (Simulation time: 0 hr 25 min 24 sec) 
Heartbeat CPU  0 instructions:  494000002 cycles:  718933250 heartbeat IPC: 0.53946 cumulative IPC: 0.61467 (Simulation time: 0 hr 25 min 28 sec) 
Heartbeat CPU  0 instructions:  495000003 cycles:  720379455 heartbeat IPC: 0.69147 cumulative IPC: 0.61485 (Simulation time: 0 hr 25 min 31 sec) 
Heartbeat CPU  0 instructions:  496000000 cycles:  721825570 heartbeat IPC: 0.69151 cumulative IPC: 0.61502 (Simulation time: 0 hr 25 min 34 sec) 
Heartbeat CPU  0 instructions:  497000000 cycles:  723266701 heartbeat IPC: 0.69390 cumulative IPC: 0.61519 (Simulation time: 0 hr 25 min 38 sec) 
Heartbeat CPU  0 instructions:  498000002 cycles:  724699363 heartbeat IPC: 0.69800 cumulative IPC: 0.61538 (Simulation time: 0 hr 25 min 41 sec) 
Heartbeat CPU  0 instructions:  499000002 cycles:  726112598 heartbeat IPC: 0.70760 cumulative IPC: 0.61558 (Simulation time: 0 hr 25 min 45 sec) 
Heartbeat CPU  0 instructions:  500000000 cycles:  727522452 heartbeat IPC: 0.70929 cumulative IPC: 0.61578 (Simulation time: 0 hr 25 min 48 sec) 
Heartbeat CPU  0 instructions:  501000002 cycles:  728937039 heartbeat IPC: 0.70692 cumulative IPC: 0.61598 (Simulation time: 0 hr 25 min 51 sec) 
Heartbeat CPU  0 instructions:  502000001 cycles:  730363159 heartbeat IPC: 0.70120 cumulative IPC: 0.61617 (Simulation time: 0 hr 25 min 55 sec) 
Heartbeat CPU  0 instructions:  503000003 cycles:  731792260 heartbeat IPC: 0.69974 cumulative IPC: 0.61635 (Simulation time: 0 hr 25 min 58 sec) 
Heartbeat CPU  0 instructions:  504000000 cycles:  733227811 heartbeat IPC: 0.69659 cumulative IPC: 0.61652 (Simulation time: 0 hr 26 min 2 sec) 
Heartbeat CPU  0 instructions:  505000000 cycles:  734682595 heartbeat IPC: 0.68739 cumulative IPC: 0.61668 (Simulation time: 0 hr 26 min 5 sec) 
Heartbeat CPU  0 instructions:  506000001 cycles:  736439656 heartbeat IPC: 0.56913 cumulative IPC: 0.61655 (Simulation time: 0 hr 26 min 8 sec) 
Heartbeat CPU  0 instructions:  507000002 cycles:  737871843 heartbeat IPC: 0.69823 cumulative IPC: 0.61673 (Simulation time: 0 hr 26 min 12 sec) 
Heartbeat CPU  0 instructions:  508000000 cycles:  739311141 heartbeat IPC: 0.69478 cumulative IPC: 0.61690 (Simulation time: 0 hr 26 min 15 sec) 
Heartbeat CPU  0 instructions:  509000000 cycles:  740751630 heartbeat IPC: 0.69421 cumulative IPC: 0.61707 (Simulation time: 0 hr 26 min 19 sec) 
Heartbeat CPU  0 instructions:  510000001 cycles:  742212091 heartbeat IPC: 0.68472 cumulative IPC: 0.61722 (Simulation time: 0 hr 26 min 22 sec) 
Heartbeat CPU  0 instructions:  511000002 cycles:  743664798 heartbeat IPC: 0.68837 cumulative IPC: 0.61737 (Simulation time: 0 hr 26 min 25 sec) 
Heartbeat CPU  0 instructions:  512000000 cycles:  745116526 heartbeat IPC: 0.68883 cumulative IPC: 0.61753 (Simulation time: 0 hr 26 min 29 sec) 
[...]
scooby_state_443ab6|9|0 1,0,0,0,0,0,0,0,0,0,0,0,0,0,0,1,
scooby_state_44330d|40|2 1,0,0,0,0,0,0,0,0,0,0,0,0,0,0,1,
scooby_state_435c41|49|1 1,0,0,0,0,0,0,0,0,0,0,0,0,0,0,1,
scooby_state_44330d|39|4 1,0,0,0,0,0,0,0,0,0,0,0,0,0,0,1,
scooby_state_41736e|6|0 1,0,0,0,0,0,0,0,0,0,0,0,0,0,0,1,
scooby_state_443c27|44|3 1,0,0,0,0,0,0,0,0,0,0,0,0,0,0,1,
scooby_state_443334|39|4 1,0,0,0,0,0,0,0,0,0,0,0,0,0,0,1,
scooby_state_443329|38|-1 1,0,0,0,0,0,0,0,0,0,0,0,0,0,0,1,
scooby_state_4445e8|53|5 1,0,0,0,0,0,0,0,0,0,0,0,0,0,0,1,
scooby_state_443329|25|-1 1,0,0,0,0,0,0,0,0,0,0,0,0,0,0,1,
scooby_state_442e86|24|3 1,0,0,0,0,0,0,0,0,0,0,0,0,0,0,1,
scooby_state_4a3ed6|5|0 1,0,0,0,0,0,0,0,0,0,0,0,0,0,0,1,
scooby_state_44395e|5|-54 1,0,0,0,0,0,0,0,0,0,0,0,0,0,0,1,
scooby_state_443334|35|4 1,0,0,0,0,0,0,0,0,0,0,0,0,0,0,1,
scooby_state_443465|22|1 1,0,0,0,0,0,0,0,0,0,0,0,0,0,0,1,
scooby_state_443b90|59|0 1,0,0,0,0,0,0,0,0,0,0,0,0,0,0,1,
scooby_state_444464|38|0 1,0,0,0,0,0,0,0,0,0,0,0,0,0,0,1,
scooby_state_44330d|28|4 1,0,0,0,0,0,0,0,0,0,0,0,0,0,0,1,
scooby_state_443a1d|4|-19 1,0,0,0,0,0,0,0,0,0,0,0,0,0,0,1,
scooby_state_44460f|40|-18 1,0,0,0,0,0,0,0,0,0,0,0,0,0,0,1,
scooby_state_443334|28|4 1,0,0,0,0,0,0,0,0,0,0,0,0,0,0,1,
scooby_state_4442c6|42|0 1,0,0,0,0,0,0,0,0,0,0,0,0,0,0,1,
scooby_state_443c27|53|5 1,0,0,0,0,0,0,0,0,0,0,0,0,0,0,1,
scooby_state_44330d|29|2 1,0,0,0,0,0,0,0,0,0,0,0,0,0,0,1,
scooby_state_443ab6|16|0 1,0,0,0,0,0,0,0,0,0,0,0,0,0,0,1,
scooby_state_445681|33|25 1,0,0,0,0,0,0,0,0,0,0,0,0,0,0,1,
scooby_state_445657|3|-54 1,0,0,0,0,0,0,0,0,0,0,0,0,0,0,1,
scooby_state_437541|21|1 1,0,0,0,0,0,0,0,0,0,0,0,0,0,0,1,
scooby_state_443b31|17|-26 1,0,0,0,0,0,0,0,0,0,0,0,0,0,0,1,
scooby_state_4439d6|32|0 1,0,0,0,0,0,0,0,0,0,0,0,0,0,0,1,
scooby_state_44460f|46|7 1,0,0,0,0,0,0,0,0,0,0,0,0,0,0,1,
scooby_state_44317e|42|1 1,0,0,0,0,0,0,0,0,0,0,0,0,0,0,1,
scooby_state_443b81|22|5 1,0,0,0,0,0,0,0,0,0,0,0,0,0,0,1,
scooby_state_4456fb|51|0 1,0,0,0,0,0,0,0,0,0,0,0,0,0,0,1,
scooby_state_44330d|47|4 1,0,0,0,0,0,0,0,0,0,0,0,0,0,0,1,
scooby_state_435ac2|43|1 1,0,0,0,0,0,0,0,0,0,0,0,0,0,0,1,
scooby_state_443144|12|1 1,0,0,0,0,0,0,0,0,0,0,0,0,0,0,1,
scooby_state_443a51|52|-8 1,0,0,0,0,0,0,0,0,0,0,0,0,0,0,1,
scooby_state_445700|43|2 1,0,0,0,0,0,0,0,0,0,0,0,0,0,0,1,
scooby_state_416c94|47|0 1,0,0,0,0,0,0,0,0,0,0,0,0,0,0,1,
scooby_state_445428|48|10 1,0,0,0,0,0,0,0,0,0,0,0,0,0,0,1,
scooby_state_44460f|37|2 1,0,0,0,0,0,0,0,0,0,0,0,0,0,0,1,
scooby_state_44469d|54|30 1,0,0,0,0,0,0,0,0,0,0,0,0,0,0,1,
scooby_state_44551d|4|-20 1,0,0,0,0,0,0,0,0,0,0,0,0,0,0,1,
scooby_state_445631|14|-30 1,0,0,0,0,0,0,0,0,0,0,0,0,0,0,1,
scooby_state_43615e|46|2 1,0,0,0,0,0,0,0,0,0,0,0,0,0,0,1,
scooby_state_44330d|17|4 1,0,0,0,0,0,0,0,0,0,0,0,0,0,0,1,
scooby_state_443ab6|27|0 1,0,0,0,0,0,0,0,0,0,0,0,0,0,0,1,
scooby_state_444519|22|2 1,0,0,0,0,0,0,0,0,0,0,0,0,0,0,1,
scooby_state_44467d|42|0 1,0,0,0,0,0,0,0,0,0,0,0,0,0,0,1,
scooby_state_445428|2|-50 1,0,0,0,0,0,0,0,0,0,0,0,0,0,0,1,
scooby_state_4438f9|48|-15 1,0,0,0,0,0,0,0,0,0,0,0,0,0,0,1,
scooby_state_4438de|63|32 1,0,0,0,0,0,0,0,0,0,0,0,0,0,0,1,
scooby_state_445631|15|-46 1,0,0,0,0,0,0,0,0,0,0,0,0,0,0,1,
scooby_state_4374d4|35|0 1,0,0,0,0,0,0,0,0,0,0,0,0,0,0,1,
scooby_state_4442e8|56|0 1,0,0,0,0,0,0,0,0,0,0,0,0,0,0,1,
scooby_state_443b90|49|2 1,0,0,0,0,0,0,0,0,0,0,0,0,0,0,1,
scooby_state_443c27|46|2 1,0,0,0,0,0,0,0,0,0,0,0,0,0,0,1,
scooby_state_4456c6|50|4 1,0,0,0,0,0,0,0,0,0,0,0,0,0,0,1,
scooby_state_445657|14|-43 1,0,0,0,0,0,0,0,0,0,0,0,0,0,0,1,
scooby_state_443050|45|4 1,0,0,0,0,0,0,0,0,0,0,0,0,0,0,1,
scooby_state_4438f9|58|0 1,0,0,0,0,0,0,0,0,0,0,0,0,0,0,1,
scooby_state_4456c6|19|4 1,0,0,0,0,0,0,0,0,0,0,0,0,0,0,1,
scooby_state_442da5|50|4 1,0,0,0,0,0,0,0,0,0,0,0,0,0,0,1,
scooby_state_44551d|56|44 1,0,0,0,0,0,0,0,0,0,0,0,0,0,0,1,
scooby_state_443a4a|51|20 1,0,0,0,0,0,0,0,0,0,0,0,0,0,0,1,
scooby_state_4438f9|6|-28 1,0,0,0,0,0,0,0,0,0,0,0,0,0,0,1,
scooby_state_445657|12|-45 1,0,0,0,0,0,0,0,0,0,0,0,0,0,0,1,
scooby_state_443b81|25|8 1,0,0,0,0,0,0,0,0,0,0,0,0,0,0,1,
scooby_state_4456fb|63|0 1,0,0,0,0,0,0,0,0,0,0,0,0,0,0,1,
scooby_state_4453ed|35|-27 1,0,0,0,0,0,0,0,0,0,0,0,0,0,0,1,
scooby_state_44589a|5|-3 1,0,0,0,0,0,0,0,0,0,0,0,0,0,0,1,
scooby_state_44451f|51|0 1,0,0,0,0,0,0,0,0,0,0,0,0,0,0,1,
scooby_state_4457df|51|6 1,0,0,0,0,0,0,0,0,0,0,0,0,0,0,1,
scooby_state_4456fb|45|0 1,0,0,0,0,0,0,0,0,0,0,0,0,0,0,1,
scooby_state_4443e7|37|0 1,0,0,0,0,0,0,0,0,0,0,0,0,0,0,1,
scooby_state_4383d4|54|22 0,0,0,0,0,0,0,0,0,0,0,0,0,0,1,1,
scooby_state_4453ed|44|0 1,0,0,0,0,0,0,0,0,0,0,0,0,0,0,1,
scooby_state_445631|16|-46 1,0,0,0,0,0,0,0,0,0,0,0,0,0,0,1,
scooby_state_44331a|26|-29 1,0,0,0,0,0,0,0,0,0,0,0,0,0,0,1,
scooby_state_443465|8|1 1,0,0,0,0,0,0,0,0,0,0,0,0,0,0,1,
scooby_state_444405|4|-2 1,0,0,0,0,0,0,0,0,0,0,0,0,0,0,1,
scooby_state_4442c6|13|0 1,0,0,0,0,0,0,0,0,0,0,0,0,0,0,1,
scooby_state_437453|28|1 0,0,0,0,0,0,0,0,0,0,0,1,0,0,0,1,
scooby_state_4453ed|52|0 1,0,0,0,0,0,0,0,0,0,0,0,0,0,0,1,
scooby_state_445795|43|0 1,0,0,0,0,0,0,0,0,0,0,0,0,0,0,1,
scooby_state_444519|39|19 1,0,0,0,0,0,0,0,0,0,0,0,0,0,0,1,
scooby_state_443a1d|1|-41 1,0,0,0,0,0,0,0,0,0,0,0,0,0,0,1,
scooby_state_4445e8|51|4 1,0,0,0,0,0,0,0,0,0,0,0,0,0,0,1,
scooby_state_445700|42|0 1,0,0,0,0,0,0,0,0,0,0,0,0,0,0,1,
scooby_state_4442c6|52|32 1,0,0,0,0,0,0,0,0,0,0,0,0,0,0,1,
scooby_state_4438c6|35|1 1,0,0,0,0,0,0,0,0,0,0,0,0,0,0,1,
scooby_state_443b31|13|-4 1,0,0,0,0,0,0,0,0,0,0,0,0,0,0,1,
scooby_state_436a86|4|0 1,0,0,0,0,0,0,0,0,0,0,0,0,0,0,1,
scooby_state_443c27|57|-4 1,0,0,0,0,0,0,0,0,0,0,0,0,0,0,1,
scooby_state_442a81|51|30 1,0,0,0,0,0,0,0,0,0,0,0,0,0,0,1,
scooby_state_417be5|18|1 1,0,0,0,0,0,0,0,0,0,0,0,0,0,0,1,
scooby_state_443ac9|59|56 1,0,0,0,0,0,0,0,0,0,0,0,0,0,0,1,
scooby_state_443b81|22|0 1,0,0,0,0,0,0,0,0,0,0,0,0,0,0,1,
scooby_state_418ec1|44|5 1,0,0,0,0,0,0,0,0,0,0,0,0,0,0,1,
scooby_state_4456c6|18|4 1,0,0,0,0,0,0,0,0,0,0,0,0,0,0,1,
scooby_state_4376c6|27|1 1,0,0,0,0,0,0,0,0,0,0,0,0,0,0,1,
scooby_state_443b57|22|-37 1,0,0,0,0,0,0,0,0,0,0,0,0,0,0,1,
scooby_state_443a1d|57|4 1,0,0,0,0,0,0,0,0,0,0,0,0,0,0,1,
scooby_state_437bc3|47|1 1,0,0,0,0,0,0,0,0,0,0,0,0,0,0,1,
scooby_state_4439d6|45|-13 1,0,0,0,0,0,0,0,0,0,0,0,0,0,0,1,
scooby_state_445631|30|7 1,0,0,0,0,0,0,0,0,0,0,0,0,0,0,1,
scooby_state_4438f9|45|8 1,0,0,0,0,0,0,0,0,0,0,0,0,0,0,1,
scooby_state_443b81|43|26 1,0,0,0,0,0,0,0,0,0,0,0,0,0,0,1,
scooby_state_443c00|43|8 1,0,0,0,0,0,0,0,0,0,0,0,0,0,0,1,
scooby_state_418799|34|5 1,0,0,0,0,0,0,0,0,0,0,0,0,0,0,1,
scooby_state_436a86|5|2 1,0,0,0,0,0,0,0,0,0,0,0,0,0,0,1,
scooby_state_443b81|46|32 1,0,0,0,0,0,0,0,0,0,0,0,0,0,0,1,
scooby_state_44557c|58|0 1,0,0,0,0,0,0,0,0,0,0,0,0,0,0,1,
scooby_state_4453ed|5|-30 1,0,0,0,0,0,0,0,0,0,0,0,0,0,0,1,
scooby_state_4454f3|47|-10 1,0,0,0,0,0,0,0,0,0,0,0,0,0,0,1,
scooby_state_4438f9|59|14 1,0,0,0,0,0,0,0,0,0,0,0,0,0,0,1,
scooby_state_443c95|16|0 1,0,0,0,0,0,0,0,0,0,0,0,0,0,0,1,
scooby_state_443044|61|4 1,0,0,0,0,0,0,0,0,0,0,0,0,0,0,1,
scooby_state_443a37|63|0 1,0,0,0,0,0,0,0,0,0,0,0,0,0,0,1,
scooby_state_443a1d|57|3 1,0,0,0,0,0,0,0,0,0,0,0,0,0,0,1,
scooby_state_443ab6|13|0 1,0,0,0,0,0,0,0,0,0,0,0,0,0,0,1,
scooby_state_443505|20|0 1,0,0,0,0,0,0,0,0,0,0,0,0,0,0,1,
scooby_state_443543|21|1 1,0,0,0,0,0,0,0,0,0,0,0,0,0,0,1,
scooby_state_443601|24|1 1,0,0,0,0,0,0,0,0,0,0,0,0,0,0,1,
scooby_state_437356|5|0 0,0,0,0,1,0,0,0,0,0,0,0,0,0,0,1,
scooby_state_443cb5|54|-9 1,0,0,0,0,0,0,0,0,0,0,0,0,0,0,1,
scooby_state_4438e4|13|0 1,0,0,0,0,0,0,0,0,0,0,0,0,0,0,1,
scooby_state_442dbd|27|4 1,0,0,0,0,0,0,0,0,0,0,0,0,0,0,1,
scooby_state_4442ae|40|-17 1,0,0,0,0,0,0,0,0,0,0,0,0,0,0,1,
scooby_state_443642|25|1 1,0,0,0,0,0,0,0,0,0,0,0,0,0,0,1,
scooby_state_443a1d|12|-10 1,0,0,0,0,0,0,0,0,0,0,0,0,0,0,1,
scooby_state_444180|6|-25 1,0,0,0,0,0,0,0,0,0,0,0,0,0,0,1,
scooby_state_443946|3|-43 1,0,0,0,0,0,0,0,0,0,0,0,0,0,0,1,
scooby_state_4153aa|5|0 1,0,0,0,0,0,0,0,0,0,0,0,0,0,0,1,
scooby_state_4442c6|36|2 1,0,0,0,0,0,0,0,0,0,0,0,0,0,0,1,
scooby_state_442e0a|4|1 1,0,0,0,0,0,0,0,0,0,0,0,0,0,0,1,
scooby_state_443743|29|1 1,0,0,0,0,0,0,0,0,0,0,0,0,0,0,1,
scooby_state_442d99|33|30 1,0,0,0,0,0,0,0,0,0,0,0,0,0,0,1,
scooby_state_442d99|32|30 1,0,0,0,0,0,0,0,0,0,0,0,0,0,0,1,
scooby_state_4445e8|52|0 1,0,0,0,0,0,0,0,0,0,0,0,0,0,0,1,
scooby_state_44551d|1|-45 1,0,0,0,0,0,0,0,0,0,0,0,0,0,0,1,
scooby_state_44449e|38|0 1,0,0,0,0,0,0,0,0,0,0,0,0,0,0,1,
scooby_state_443329|12|-1 1,0,0,0,0,0,0,0,0,0,0,0,0,0,0,1,
scooby_state_445690|37|0 1,0,0,0,0,0,0,0,0,0,0,0,0,0,0,1,
scooby_state_442d99|46|30 1,0,0,0,0,0,0,0,0,0,0,0,0,0,0,1,
scooby_state_4442c6|50|0 1,0,0,0,0,0,0,0,0,0,0,0,0,0,0,1,
scooby_state_442db1|15|-29 1,0,0,0,0,0,0,0,0,0,0,0,0,0,0,1,
scooby_state_443329|34|-1 1,0,0,0,0,0,0,0,0,0,0,0,0,0,0,1,
scooby_state_44330d|36|2 1,0,0,0,0,0,0,0,0,0,0,0,0,0,0,1,
scooby_state_442d99|44|30 1,0,0,0,0,0,0,0,0,0,0,0,0,0,0,1,
scooby_state_443334|13|4 1,0,0,0,0,0,0,0,0,0,0,0,0,0,0,1,
scooby_state_444405|57|9 1,0,0,0,0,0,0,0,0,0,0,0,0,0,0,1,
scooby_state_417300|12|1 1,0,0,0,0,0,0,0,0,0,0,0,0,0,0,1,
scooby_state_442d99|42|30 1,0,0,0,0,0,0,0,0,0,0,0,0,0,0,1,
scooby_state_443781|30|1 1,0,0,0,0,0,0,0,0,0,0,0,0,0,0,1,
scooby_state_445449|62|0 1,0,0,0,0,0,0,0,0,0,0,0,0,0,0,1,
scooby_state_4187c3|31|1 1,0,0,0,0,0,0,0,0,0,0,0,0,0,0,1,
scooby_state_44460f|58|9 1,0,0,0,0,0,0,0,0,0,0,0,0,0,0,1,
scooby_state_443465|29|1 1,0,0,0,0,0,0,0,0,0,0,0,0,0,0,1,
scooby_state_445657|5|-56 1,0,0,0,0,0,0,0,0,0,0,0,0,0,0,1,
scooby_state_444405|57|7 1,0,0,0,0,0,0,0,0,0,0,0,0,0,0,1,
scooby_state_44341a|34|3 1,0,0,0,0,0,0,0,0,0,0,0,0,0,0,1,
scooby_state_442db1|12|-29 1,0,0,0,0,0,0,0,0,0,0,0,0,0,0,1,
scooby_state_442db1|8|-29 1,0,0,0,0,0,0,0,0,0,0,0,0,0,0,1,
scooby_state_437b64|54|0 0,0,0,0,0,1,0,0,0,0,0,0,0,0,0,1,
scooby_state_442dc2|55|1 1,0,0,0,0,0,0,0,0,0,0,0,0,0,0,1,
scooby_state_443a1d|1|-38 1,0,0,0,0,0,0,0,0,0,0,0,0,0,0,1,
scooby_state_443c27|37|-19 1,0,0,0,0,0,0,0,0,0,0,0,0,0,0,1,
scooby_state_442ea3|32|-25 1,0,0,0,0,0,0,0,0,0,0,0,0,0,0,1,
scooby_state_442d99|20|0 1,0,0,0,0,0,0,0,0,0,0,0,0,0,0,1,
scooby_state_4357d6|61|25 0,0,0,0,0,0,0,0,0,0,0,0,1,0,0,1,
scooby_state_4442e8|57|0 1,0,0,0,0,0,0,0,0,0,0,0,0,0,0,1,
scooby_state_443a1d|6|-29 1,0,0,0,0,0,0,0,0,0,0,0,0,0,0,1,
scooby_state_442da5|32|4 1,0,0,0,0,0,0,0,0,0,0,0,0,0,0,1,
scooby_state_4438de|5|0 1,0,0,0,0,0,0,0,0,0,0,0,0,0,0,1,
scooby_state_443b31|34|0 1,0,0,0,0,0,0,0,0,0,0,0,0,0,0,1,
scooby_state_442ec6|59|1 1,0,0,0,0,0,0,0,0,0,0,0,0,0,0,1,
scooby_state_443c40|49|1 1,0,0,0,0,0,0,0,0,0,0,0,0,0,0,1,
scooby_state_442d80|54|1 1,0,0,0,0,0,0,0,0,0,0,0,0,0,0,1,
scooby_state_443d41|53|1 1,0,0,0,0,0,0,0,0,0,0,0,0,0,0,1,
scooby_state_443baf|60|0 1,0,0,0,0,0,0,0,0,0,0,0,0,0,0,1,
scooby_state_443a1d|4|-13 1,0,0,0,0,0,0,0,0,0,0,0,0,0,0,1,
scooby_state_443108|28|1 1,0,0,0,0,0,0,0,0,0,0,0,0,0,0,1,
scooby_state_445938|7|-4 1,0,0,0,0,0,0,0,0,0,0,0,0,0,0,1,
scooby_state_445727|47|-16 1,0,0,0,0,0,0,0,0,0,0,0,0,0,0,1,
scooby_state_445681|46|32 1,0,0,0,0,0,0,0,0,0,0,0,0,0,0,1,
scooby_state_442a69|14|-29 1,0,0,0,0,0,0,0,0,0,0,0,0,0,0,1,
scooby_state_44330d|13|4 1,0,0,0,0,0,0,0,0,0,0,0,0,0,0,1,
scooby_state_4456c6|18|3 1,0,0,0,0,0,0,0,0,0,0,0,0,0,0,1,
scooby_state_443883|34|1 1,0,0,0,0,0,0,0,0,0,0,0,0,0,0,1,
scooby_state_443b31|23|7 1,0,0,0,0,0,0,0,0,0,0,0,0,0,0,1,
scooby_state_442dbd|29|4 1,0,0,0,0,0,0,0,0,0,0,0,0,0,0,1,
scooby_state_44330d|8|4 1,0,0,0,0,0,0,0,0,0,0,0,0,0,0,1,
scooby_state_443840|33|1 1,0,0,0,0,0,0,0,0,0,0,0,0,0,0,1,
scooby_state_443b31|23|6 1,0,0,0,0,0,0,0,0,0,0,0,0,0,0,1,
scooby_state_443c00|57|2 1,0,0,0,0,0,0,0,0,0,0,0,0,0,0,1,
scooby_state_442db1|60|1 1,0,0,0,0,0,0,0,0,0,0,0,0,0,0,1,
scooby_state_443c00|49|2 1,0,0,0,0,0,0,0,0,0,0,0,0,0,0,1,
scooby_state_443b57|17|-45 1,0,0,0,0,0,0,0,0,0,0,0,0,0,0,1,
scooby_state_44460f|55|4 1,0,0,0,0,0,0,0,0,0,0,0,0,0,0,1,
scooby_state_4439d6|39|-7 1,0,0,0,0,0,0,0,0,0,0,0,0,0,0,1,
scooby_state_418799|58|6 1,0,0,0,0,0,0,0,0,0,0,0,0,0,0,1,
scooby_state_442db1|59|1 1,0,0,0,0,0,0,0,0,0,0,0,0,0,0,1,
scooby_state_443986|38|1 1,0,0,0,0,0,0,0,0,0,0,0,0,0,0,1,
scooby_state_418f2c|48|2 1,0,0,0,0,0,0,0,0,0,0,0,0,0,0,1,
scooby_state_444405|57|3 1,0,0,0,0,0,0,0,0,0,0,0,0,0,0,1,
scooby_state_443a80|42|1 1,0,0,0,0,0,0,0,0,0,0,0,0,0,0,1,
scooby_state_4178c3|35|1 1,0,0,0,0,0,0,0,0,0,0,0,0,0,0,1,
scooby_state_4438f9|60|-3 1,0,0,0,0,0,0,0,0,0,0,0,0,0,0,1,
scooby_state_443bc6|47|1 1,0,0,0,0,0,0,0,0,0,0,0,0,0,0,1,
scooby_state_443c84|59|21 1,0,0,0,0,0,0,0,0,0,0,0,0,0,0,1,
scooby_state_442db1|57|1 1,0,0,0,0,0,0,0,0,0,0,0,0,0,0,1,

scooby_action_0_deg_dist 0,38516,0,0,0,0,0,0,0,0,0,0,0,0,0,0,
scooby_action_22_deg_dist 0,21927,30,0,0,0,0,0,0,0,0,0,0,0,0,0,
scooby_action_3_deg_dist 0,11058,689,0,1645,0,9535,0,0,0,0,0,0,0,0,0,
scooby_action_32_deg_dist 0,6415,6,0,10,0,0,0,0,0,0,0,0,0,0,0,
scooby_action_5_deg_dist 0,8274,43,0,37,0,5,0,0,0,0,0,0,0,0,0,
scooby_action_4_deg_dist 0,8358,37,0,27,0,0,0,0,0,0,0,0,0,0,0,
scooby_action_1_deg_dist 0,3828684,233323,0,286135,0,2510099,0,0,0,0,0,0,0,0,0,
scooby_action_30_deg_dist 0,52681,0,0,0,0,0,0,0,0,0,0,0,0,0,0,
scooby_action_-3_deg_dist 0,73144,25563,0,58266,0,364926,0,0,0,0,0,0,0,0,0,
scooby_action_10_deg_dist 0,8224,19,0,11,0,0,0,0,0,0,0,0,0,0,0,
scooby_action_-1_deg_dist 0,40795,15399,0,39272,0,224023,0,0,0,0,0,0,0,0,0,
scooby_action_23_deg_dist 0,3137655,349182,0,46,0,70,0,0,0,0,0,0,0,0,0,
scooby_action_-6_deg_dist 0,12378,2234,0,5447,0,33688,0,0,0,0,0,0,0,0,0,
scooby_action_11_deg_dist 0,917802,478225,0,144635,0,37,0,0,0,0,0,0,0,0,0,
scooby_action_12_deg_dist 0,9095,35,0,16,0,2,0,0,0,0,0,0,0,0,0,

scooby_track_called 12957723
scooby_track_same_address 198826
scooby_track_evict 12758641

scooby_reward_demand_called 12957723
scooby_reward_demand_pt_not_found 6793191
scooby_reward_demand_pt_found 6164532
scooby_reward_demand_pt_found_total 6164532
scooby_reward_demand_has_reward 2802
scooby_reward_train_called 4980018
scooby_reward_assign_reward_called 12758666
scooby_reward_no_pref 38516
scooby_reward_incorrect 4941502
scooby_reward_correct_untimely 4751399
scooby_reward_correct_timely 1410331
scooby_reward_out_of_bounds 1616918
scooby_reward_tracker_hit 0

scooby_reward_none_low_bw 38516
scooby_reward_none_high_bw 0
scooby_reward_incorrect_low_bw 4941502
scooby_reward_incorrect_high_bw 0
scooby_reward_correct_untimely_low_bw 4751399
scooby_reward_correct_untimely_high_bw 0
scooby_reward_correct_timely_low_bw 1410331
scooby_reward_correct_timely_high_bw 0
scooby_reward_out_of_bounds_low_bw 1616918
scooby_reward_out_of_bounds_high_bw 0
scooby_reward_tracker_hit_low_bw 0
scooby_reward_tracker_hit_high_bw 0

scooby_reward_1 0,3649111,2774942,167680,110191,0,
scooby_reward_3 0,8887,12002,536,1349,0,
scooby_reward_4 0,7355,254,77,642,0,
scooby_reward_5 0,7212,239,63,765,0,
scooby_reward_10 0,6445,58,225,1459,0,
scooby_reward_11 0,419969,470015,361251,266949,0,
scooby_reward_12 0,6073,302,474,1967,0,
scooby_reward_22 0,10650,3682,2368,5255,0,
scooby_reward_23 0,726253,756963,823503,1180216,0,
scooby_reward_30 0,27941,12397,2728,9582,0,
scooby_reward_32 0,2989,6,18,3410,0,
scooby_reward_-1 0,14639,267224,13899,5122,0,
scooby_reward_-3 0,44281,419510,32899,24802,0,
scooby_reward_-6 0,9697,33805,4610,5209,0,
scooby_reward_0 38516,0,0,0,0,0,

scooby_train_called 12758640
scooby_train_compute_reward 4980018

scooby_register_fill_called 7040394
scooby_register_fill_set 4440994
scooby_register_fill_set_total 4440994

scooby_register_prefetch_hit_called 19394008
scooby_register_prefetch_hit_set 6641000
scooby_register_prefetch_hit_set_total 6641000

scooby_pref_issue_scooby 26748539

learning_engine_featurewise.action.called 12957723
learning_engine_featurewise.action.explore 23478
learning_engine_featurewise.action.exploit 12934245
learning_engine_featurewise.action.fallback 3609261
learning_engine_featurewise.action.dyn_fallback_saved_bw 0
learning_engine_featurewise.action.dyn_fallback_saved_bw_acc 151581
learning_engine_featurewise.action.index_1_explored 1598
learning_engine_featurewise.action.index_1_exploited 6856643
learning_engine_featurewise.action.index_3_explored 1554
learning_engine_featurewise.action.index_3_exploited 21373
learning_engine_featurewise.action.index_4_explored 1615
learning_engine_featurewise.action.index_4_exploited 6807
learning_engine_featurewise.action.index_5_explored 1537
learning_engine_featurewise.action.index_5_exploited 6822
learning_engine_featurewise.action.index_10_explored 1588
learning_engine_featurewise.action.index_10_exploited 6666
learning_engine_featurewise.action.index_11_explored 1543
learning_engine_featurewise.action.index_11_exploited 1539156
learning_engine_featurewise.action.index_12_explored 1642
learning_engine_featurewise.action.index_12_exploited 7506
learning_engine_featurewise.action.index_22_explored 1600
learning_engine_featurewise.action.index_22_exploited 20357
learning_engine_featurewise.action.index_23_explored 1521
learning_engine_featurewise.action.index_23_exploited 3485432
learning_engine_featurewise.action.index_30_explored 1561
learning_engine_featurewise.action.index_30_exploited 51120
learning_engine_featurewise.action.index_32_explored 1502
learning_engine_featurewise.action.index_32_exploited 4929
learning_engine_featurewise.action.index_-1_explored 1582
learning_engine_featurewise.action.index_-1_exploited 317907
learning_engine_featurewise.action.index_-3_explored 1539
learning_engine_featurewise.action.index_-3_exploited 520360
learning_engine_featurewise.action.index_-6_explored 1526
learning_engine_featurewise.action.index_-6_exploited 52221
learning_engine_featurewise.action.index_0_explored 1570
learning_engine_featurewise.action.index_0_exploited 36946
learning_engine_featurewise.learn.called 12758640
learning_engine_featurewise.learn.su_skip_PC 0
learning_engine_featurewise.learn.su_skip_PC_Delta 0

learning_engine_featurewise.q_value_histogram.bucket_0 75314
learning_engine_featurewise.q_value_histogram.bucket_1 11466
learning_engine_featurewise.q_value_histogram.bucket_2 4375178
learning_engine_featurewise.q_value_histogram.bucket_3 362380
learning_engine_featurewise.q_value_histogram.bucket_4 830700
learning_engine_featurewise.q_value_histogram.bucket_5 1985929
learning_engine_featurewise.q_value_histogram.bucket_6 5293278
learning_engine_featurewise.q_value_histogram.bucket_7 0

learning_engine_featurewise.consensus.total 12934245
learning_engine_featurewise.consensus.feature_align_PC 12307258
learning_engine_featurewise.consensus.feature_align_PC_ratio 0.95
learning_engine_featurewise.consensus.feature_align_PC_Delta 11192732
learning_engine_featurewise.consensus.feature_align_PC_Delta_ratio 0.87
learning_engine_featurewise.consensus.feature_align_all 10652387
learning_engine_featurewise.consensus.feature_align_all_ratio 0.82

learning_engine_featurewise.feature_PC_min_weight 1000000.00000000
learning_engine_featurewise.feature_PC_max_weight 0.00000000
learning_engine_featurewise.feature_PC_Delta_min_weight 1000000.00000000
learning_engine_featurewise.feature_PC_Delta_max_weight 0.00000000
unique_pcs 1575
unique_pages 101432
unique_trigger_pcs 573
total_bitmaps_seen 0
unique_bitmaps_seen 0

scooby_bw_epochs 3496407
scooby_bw_level_0 3159260
scooby_bw_level_1 294426
scooby_bw_level_2 26829
scooby_bw_level_3 15892

scooby_ipc_epochs 0
scooby_ipc_level_0 0
scooby_ipc_level_1 0
scooby_ipc_level_2 0
scooby_ipc_level_3 0

scooby_cache_acc_epochs 825350
scooby_cache_acc_level_0 35848
scooby_cache_acc_level_1 47054
scooby_cache_acc_level_2 44559
scooby_cache_acc_level_3 63001
scooby_cache_acc_level_4 103273
scooby_cache_acc_level_5 93690
scooby_cache_acc_level_6 75209
scooby_cache_acc_level_7 66352
scooby_cache_acc_level_8 65568
scooby_cache_acc_level_9 230796

Channel_0_RQ_row_buffer_hit 1380190
Channel_0_RQ_row_buffer_miss 2591958
Channel_0_WQ_row_buffer_hit 123113
Channel_0_WQ_row_buffer_miss 682664
Channel_0_WQ_full 0
Channel_0_dbus_congested 1311117

avg_congested_cycle 8

DRAM_bw_pochs 3496407
DRAM_bw_level_0 3159260
DRAM_bw_level_1 294426
DRAM_bw_level_2 26829
DRAM_bw_level_3 15892
