*************************************************
   ChampSim Multicore Out-of-Order Simulator
   Last compiled: Dec 11 2024 17:59:53
*************************************************
parsing config file: /home/functionmain/桌面/Pythia/config/pythia.ini

trace_0 /home/functionmain/桌面/Pythia/traces/459.GemsFDTD-1211B.champsimtrace.xz
adding L2C_PREFETCHER: Scooby
Initialize SHIP state
warmup_instructions 100000000
simulation_instructions 500000000
champsim_seed 263
measure_ipc 0
measure_ipc_epoch 1000
measure_dram_bw 1
measure_dram_bw_epoch 256
measure_cache_acc 1
measure_cache_acc_epoch 1024
l1d_perfect 0
l2c_perfect 0
llc_perfect 0
l1d_semi_perfect 0
l2c_semi_perfect 0
llc_semi_perfect 0
semi_perfect_cache_page_buffer_size 64

num_cpus 1
cpu_freq 4000
dram_io_freq 150
page_size 4096
block_size 64
max_read_per_cycle 8
max_fill_per_cycle 1
dram_channels 1
log2_dram_channels 0
dram_ranks 1
dram_banks 8
dram_rows 65536
dram_columns 128
dram_row_size 8
dram_size 4096
dram_pages 1048576

fetch_width 6
decode_width 6
exec_width 4
lq_width 2
sq_width 2
retire_width 4
scheduler_size 128
branch_mispredict_penalty 20
rob_size 256
lq_size 72
sq_size 56
num_instr_destinations_sparc 4
num_instr_destinations 2
num_instr_sources 4

itlb_set 16
itlb_way 8
itlb_rq_size 16
itlb_wq_size 16
itlb_pq_size 0
itlb_mshr_size 8
itlb_latency 1

dtlb_set 16
dtlb_way 4
dtlb_rq_size 16
dtlb_wq_size 16
dtlb_pq_size 0
dtlb_mshr_size 8
dtlb_latency 1

stlb_set 128
stlb_way 12
stlb_rq_size 32
stlb_wq_size 32
stlb_pq_size 0
stlb_mshr_size 16
stlb_latency 8

l1i_size 32
l1i_set 64
l1i_way 8
l1i_rq_size 64
l1i_wq_size 64
l1i_pq_size 8
l1i_mshr_size 8
l1i_latency 1

l1d_size 32
l1d_set 64
l1d_way 8
l1d_rq_size 64
l1d_wq_size 64
l1d_pq_size 8
l1d_mshr_size 16
l1d_latency 4

l2c_size 256
l2c_set 512
l2c_way 8
l2c_rq_size 32
l2c_wq_size 32
l2c_pq_size 32
l2c_mshr_size 32
l2c_latency 10

llc_size 2048
llc_set 2048
llc_way 16
llc_rq_size 32
llc_wq_size 32
llc_pq_size 32
llc_mshr_size 64
llc_latency 20

dram_channel_width 8
dram_wq_size 64
dram_rq_size 64
tRP 15
tRCD 15
tCAS 12.5
dram_dbus_turn_around_time 30
dram_write_high_wm 56
dram_write_low_wm 48
min_dram_writes_per_switch 16
dram_mtps 150
dram_dbus_return_time 213

scooby_alpha 0.0065088
scooby_gamma 0.556301
scooby_epsilon 0.00182284
scooby_state_num_bits 10
scooby_max_states 1024
scooby_seed 200
scooby_policy EGreedy
scooby_learning_type SARSA
scooby_actions 1,3,4,5,10,11,12,22,23,30,32,-1,-3,-6,0,
scooby_max_actions 15
scooby_pt_size 256
scooby_st_size 64
scooby_max_pcs 5
scooby_max_offsets 5
scooby_max_deltas 5
scooby_reward_none -4
scooby_reward_incorrect -8
scooby_reward_correct_untimely 12
scooby_reward_correct_timely 20
scooby_brain_zero_init 0
scooby_enable_reward_all 0
scooby_enable_track_multiple 0
scooby_enable_reward_out_of_bounds 1
scooby_reward_out_of_bounds -12
scooby_state_type 1
scooby_state_hash_type 11
scooby_access_debug 0
scooby_print_access_debug 0
scooby_print_access_debug_pc deadbeef
scooby_print_access_debug_pc_count 0
scooby_print_trace 0
scooby_enable_state_action_stats 1
scooby_enable_reward_tracker_hit 0
scooby_reward_tracker_hit -2
scooby_enable_featurewise_engine 1
scooby_pref_degree 1
scooby_enable_dyn_degree 1
scooby_max_to_avg_q_thresholds 0.5,1,2,
scooby_dyn_degrees 1,2,4,4,
scooby_multi_deg_select_type 2
scooby_last_pref_offset_conf_thresholds 1,3,8,
scooby_dyn_degrees_type2 1,2,4,6,
scooby_action_tracker_size 2
scooby_high_bw_thresh 4
scooby_enable_hbw_reward 1
scooby_reward_hbw_correct_timely 20
scooby_reward_hbw_correct_untimely 12
scooby_reward_hbw_incorrect -14
scooby_reward_hbw_none -2
scooby_reward_hbw_out_of_bounds -12
scooby_reward_hbw_tracker_hit -2
scooby_last_pref_offset_conf_thresholds_hbw 1,3,8,
scooby_dyn_degrees_type2_hbw 1,2,4,6,

le_enable_trace 0
le_trace_interval 0
le_trace_file_name 
le_trace_state 0
le_enable_score_plot 0
le_plot_file_name 
le_plot_actions 
le_enable_action_trace 0
le_action_trace_interval 0
le_action_trace_name 
le_enable_action_plot 0

le_featurewise_active_features PC, PC_Delta
le_featurewise_num_tilings 3,3,
le_featurewise_num_tiles 128,128,
le_featurewise_hash_types 2,2,
le_featurewise_enable_tiling_offset 1,1,
le_featurewise_max_q_thresh 0.5
le_featurewise_enable_action_fallback 1
le_featurewise_feature_weights 1,1,
le_featurewise_enable_dynamic_weight 0
le_featurewise_weight_gradient 0.001
le_featurewise_disable_adjust_weight_all_features_align 1
le_featurewise_selective_update 0
le_featurewise_pooling_type 2
le_featurewise_enable_dyn_action_fallback 1
le_featurewise_bw_acc_check_level 1
le_featurewise_acc_thresh 2
le_featurewise_enable_trace 0
le_featurewise_trace_feature_type 0
le_featurewise_trace_feature 
le_featurewise_trace_interval 0
le_featurewise_trace_record_count 0
le_featurewise_trace_file_name 
le_featurewise_enable_score_plot 0
le_featurewise_plot_actions 
le_featurewise_plot_file_name 


Heartbeat CPU  0 instructions:    1000003 cycles:     792467 heartbeat IPC: 1.26189 cumulative IPC: 1.26189 (Simulation time: 0 hr 0 min 3 sec) 
Heartbeat CPU  0 instructions:    2000002 cycles:    1584262 heartbeat IPC: 1.26295 cumulative IPC: 1.26242 (Simulation time: 0 hr 0 min 6 sec) 
Heartbeat CPU  0 instructions:    3000003 cycles:    2376124 heartbeat IPC: 1.26285 cumulative IPC: 1.26256 (Simulation time: 0 hr 0 min 8 sec) 
Heartbeat CPU  0 instructions:    4000000 cycles:    3168016 heartbeat IPC: 1.26279 cumulative IPC: 1.26262 (Simulation time: 0 hr 0 min 11 sec) 
Heartbeat CPU  0 instructions:    5000000 cycles:    3959960 heartbeat IPC: 1.26272 cumulative IPC: 1.26264 (Simulation time: 0 hr 0 min 13 sec) 
Heartbeat CPU  0 instructions:    6000002 cycles:    4751853 heartbeat IPC: 1.26280 cumulative IPC: 1.26267 (Simulation time: 0 hr 0 min 16 sec) 
Heartbeat CPU  0 instructions:    7000000 cycles:    5543612 heartbeat IPC: 1.26301 cumulative IPC: 1.26271 (Simulation time: 0 hr 0 min 19 sec) 
Heartbeat CPU  0 instructions:    8000000 cycles:    6335596 heartbeat IPC: 1.26265 cumulative IPC: 1.26271 (Simulation time: 0 hr 0 min 21 sec) 
Heartbeat CPU  0 instructions:    9000000 cycles:    7127486 heartbeat IPC: 1.26280 cumulative IPC: 1.26272 (Simulation time: 0 hr 0 min 24 sec) 
Heartbeat CPU  0 instructions:   10000001 cycles:    7919159 heartbeat IPC: 1.26315 cumulative IPC: 1.26276 (Simulation time: 0 hr 0 min 26 sec) 
Heartbeat CPU  0 instructions:   11000000 cycles:    8710765 heartbeat IPC: 1.26325 cumulative IPC: 1.26281 (Simulation time: 0 hr 0 min 29 sec) 
Heartbeat CPU  0 instructions:   12000000 cycles:    9502642 heartbeat IPC: 1.26282 cumulative IPC: 1.26281 (Simulation time: 0 hr 0 min 32 sec) 
Heartbeat CPU  0 instructions:   13000000 cycles:   10294560 heartbeat IPC: 1.26276 cumulative IPC: 1.26280 (Simulation time: 0 hr 0 min 34 sec) 
Heartbeat CPU  0 instructions:   14000002 cycles:   11086374 heartbeat IPC: 1.26293 cumulative IPC: 1.26281 (Simulation time: 0 hr 0 min 37 sec) 
Heartbeat CPU  0 instructions:   15000000 cycles:   11878308 heartbeat IPC: 1.26273 cumulative IPC: 1.26281 (Simulation time: 0 hr 0 min 40 sec) 
Heartbeat CPU  0 instructions:   16000000 cycles:   12670125 heartbeat IPC: 1.26292 cumulative IPC: 1.26281 (Simulation time: 0 hr 0 min 42 sec) 
Heartbeat CPU  0 instructions:   17000001 cycles:   13462085 heartbeat IPC: 1.26269 cumulative IPC: 1.26281 (Simulation time: 0 hr 0 min 45 sec) 
Heartbeat CPU  0 instructions:   18000002 cycles:   14253912 heartbeat IPC: 1.26290 cumulative IPC: 1.26281 (Simulation time: 0 hr 0 min 47 sec) 
Heartbeat CPU  0 instructions:   19000000 cycles:   15045800 heartbeat IPC: 1.26280 cumulative IPC: 1.26281 (Simulation time: 0 hr 0 min 50 sec) 
Heartbeat CPU  0 instructions:   20000000 cycles:   15837353 heartbeat IPC: 1.26334 cumulative IPC: 1.26284 (Simulation time: 0 hr 0 min 53 sec) 
Heartbeat CPU  0 instructions:   21000000 cycles:   16629001 heartbeat IPC: 1.26319 cumulative IPC: 1.26285 (Simulation time: 0 hr 0 min 55 sec) 
Heartbeat CPU  0 instructions:   22000003 cycles:   17420860 heartbeat IPC: 1.26285 cumulative IPC: 1.26285 (Simulation time: 0 hr 0 min 58 sec) 
Heartbeat CPU  0 instructions:   23000000 cycles:   18212753 heartbeat IPC: 1.26279 cumulative IPC: 1.26285 (Simulation time: 0 hr 1 min 1 sec) 
Heartbeat CPU  0 instructions:   24000000 cycles:   19004618 heartbeat IPC: 1.26284 cumulative IPC: 1.26285 (Simulation time: 0 hr 1 min 3 sec) 
Heartbeat CPU  0 instructions:   25000001 cycles:   19796576 heartbeat IPC: 1.26269 cumulative IPC: 1.26284 (Simulation time: 0 hr 1 min 6 sec) 
Heartbeat CPU  0 instructions:   26000002 cycles:   20588452 heartbeat IPC: 1.26283 cumulative IPC: 1.26284 (Simulation time: 0 hr 1 min 8 sec) 
Heartbeat CPU  0 instructions:   27000001 cycles:   21380226 heartbeat IPC: 1.26299 cumulative IPC: 1.26285 (Simulation time: 0 hr 1 min 11 sec) 
Heartbeat CPU  0 instructions:   28000000 cycles:   22172199 heartbeat IPC: 1.26267 cumulative IPC: 1.26284 (Simulation time: 0 hr 1 min 14 sec) 
Heartbeat CPU  0 instructions:   29000001 cycles:   22964062 heartbeat IPC: 1.26285 cumulative IPC: 1.26284 (Simulation time: 0 hr 1 min 16 sec) 
Heartbeat CPU  0 instructions:   30000002 cycles:   23755837 heartbeat IPC: 1.26299 cumulative IPC: 1.26285 (Simulation time: 0 hr 1 min 19 sec) 
Heartbeat CPU  0 instructions:   31000001 cycles:   24547546 heartbeat IPC: 1.26309 cumulative IPC: 1.26286 (Simulation time: 0 hr 1 min 22 sec) 
Heartbeat CPU  0 instructions:   32000000 cycles:   25339089 heartbeat IPC: 1.26335 cumulative IPC: 1.26287 (Simulation time: 0 hr 1 min 24 sec) 
Heartbeat CPU  0 instructions:   33000001 cycles:   26131064 heartbeat IPC: 1.26267 cumulative IPC: 1.26286 (Simulation time: 0 hr 1 min 27 sec) 
Heartbeat CPU  0 instructions:   34000003 cycles:   26922880 heartbeat IPC: 1.26292 cumulative IPC: 1.26287 (Simulation time: 0 hr 1 min 29 sec) 
Heartbeat CPU  0 instructions:   35000001 cycles:   27714740 heartbeat IPC: 1.26285 cumulative IPC: 1.26287 (Simulation time: 0 hr 1 min 32 sec) 
Heartbeat CPU  0 instructions:   36000000 cycles:   28506703 heartbeat IPC: 1.26268 cumulative IPC: 1.26286 (Simulation time: 0 hr 1 min 35 sec) 
Heartbeat CPU  0 instructions:   37000000 cycles:   29298641 heartbeat IPC: 1.26273 cumulative IPC: 1.26286 (Simulation time: 0 hr 1 min 37 sec) 
Heartbeat CPU  0 instructions:   38000000 cycles:   30090445 heartbeat IPC: 1.26294 cumulative IPC: 1.26286 (Simulation time: 0 hr 1 min 40 sec) 
Heartbeat CPU  0 instructions:   39000001 cycles:   30882265 heartbeat IPC: 1.26291 cumulative IPC: 1.26286 (Simulation time: 0 hr 1 min 42 sec) 
Heartbeat CPU  0 instructions:   40000000 cycles:   31665271 heartbeat IPC: 1.27713 cumulative IPC: 1.26321 (Simulation time: 0 hr 1 min 45 sec) 
Heartbeat CPU  0 instructions:   41000001 cycles:   32438526 heartbeat IPC: 1.29324 cumulative IPC: 1.26393 (Simulation time: 0 hr 1 min 49 sec) 
Heartbeat CPU  0 instructions:   42000003 cycles:   33211430 heartbeat IPC: 1.29382 cumulative IPC: 1.26462 (Simulation time: 0 hr 1 min 52 sec) 
Heartbeat CPU  0 instructions:   43000001 cycles:   33987586 heartbeat IPC: 1.28840 cumulative IPC: 1.26517 (Simulation time: 0 hr 1 min 55 sec) 
Heartbeat CPU  0 instructions:   44000000 cycles:   34779129 heartbeat IPC: 1.26335 cumulative IPC: 1.26513 (Simulation time: 0 hr 1 min 58 sec) 
Heartbeat CPU  0 instructions:   45000001 cycles:   35570506 heartbeat IPC: 1.26362 cumulative IPC: 1.26509 (Simulation time: 0 hr 2 min 1 sec) 
Heartbeat CPU  0 instructions:   46000003 cycles:   36362120 heartbeat IPC: 1.26324 cumulative IPC: 1.26505 (Simulation time: 0 hr 2 min 3 sec) 
Heartbeat CPU  0 instructions:   47000001 cycles:   37153456 heartbeat IPC: 1.26368 cumulative IPC: 1.26502 (Simulation time: 0 hr 2 min 6 sec) 
Heartbeat CPU  0 instructions:   48000000 cycles:   37944891 heartbeat IPC: 1.26353 cumulative IPC: 1.26499 (Simulation time: 0 hr 2 min 8 sec) 
Heartbeat CPU  0 instructions:   49000001 cycles:   38736124 heartbeat IPC: 1.26385 cumulative IPC: 1.26497 (Simulation time: 0 hr 2 min 11 sec) 
Heartbeat CPU  0 instructions:   50000003 cycles:   39527315 heartbeat IPC: 1.26392 cumulative IPC: 1.26495 (Simulation time: 0 hr 2 min 14 sec) 
Heartbeat CPU  0 instructions:   51000001 cycles:   40318865 heartbeat IPC: 1.26334 cumulative IPC: 1.26492 (Simulation time: 0 hr 2 min 16 sec) 
Heartbeat CPU  0 instructions:   52000000 cycles:   41110355 heartbeat IPC: 1.26344 cumulative IPC: 1.26489 (Simulation time: 0 hr 2 min 19 sec) 
Heartbeat CPU  0 instructions:   53000003 cycles:   41901956 heartbeat IPC: 1.26327 cumulative IPC: 1.26486 (Simulation time: 0 hr 2 min 21 sec) 
Heartbeat CPU  0 instructions:   54000002 cycles:   42693469 heartbeat IPC: 1.26340 cumulative IPC: 1.26483 (Simulation time: 0 hr 2 min 24 sec) 
Heartbeat CPU  0 instructions:   55000001 cycles:   43484840 heartbeat IPC: 1.26363 cumulative IPC: 1.26481 (Simulation time: 0 hr 2 min 27 sec) 
Heartbeat CPU  0 instructions:   56000000 cycles:   44276123 heartbeat IPC: 1.26377 cumulative IPC: 1.26479 (Simulation time: 0 hr 2 min 29 sec) 
Heartbeat CPU  0 instructions:   57000000 cycles:   45067703 heartbeat IPC: 1.26330 cumulative IPC: 1.26476 (Simulation time: 0 hr 2 min 32 sec) 
Heartbeat CPU  0 instructions:   58000002 cycles:   45859043 heartbeat IPC: 1.26368 cumulative IPC: 1.26475 (Simulation time: 0 hr 2 min 35 sec) 
Heartbeat CPU  0 instructions:   59000000 cycles:   46650553 heartbeat IPC: 1.26341 cumulative IPC: 1.26472 (Simulation time: 0 hr 2 min 37 sec) 
Heartbeat CPU  0 instructions:   60000000 cycles:   47441885 heartbeat IPC: 1.26369 cumulative IPC: 1.26471 (Simulation time: 0 hr 2 min 40 sec) 
Heartbeat CPU  0 instructions:   61000000 cycles:   48233047 heartbeat IPC: 1.26396 cumulative IPC: 1.26469 (Simulation time: 0 hr 2 min 43 sec) 
Heartbeat CPU  0 instructions:   62000002 cycles:   49024722 heartbeat IPC: 1.26315 cumulative IPC: 1.26467 (Simulation time: 0 hr 2 min 45 sec) 
Heartbeat CPU  0 instructions:   63000000 cycles:   49816213 heartbeat IPC: 1.26344 cumulative IPC: 1.26465 (Simulation time: 0 hr 2 min 48 sec) 
Heartbeat CPU  0 instructions:   64000000 cycles:   50607629 heartbeat IPC: 1.26356 cumulative IPC: 1.26463 (Simulation time: 0 hr 2 min 51 sec) 
Heartbeat CPU  0 instructions:   65000000 cycles:   51399216 heartbeat IPC: 1.26329 cumulative IPC: 1.26461 (Simulation time: 0 hr 2 min 53 sec) 
Heartbeat CPU  0 instructions:   66000003 cycles:   52190634 heartbeat IPC: 1.26356 cumulative IPC: 1.26459 (Simulation time: 0 hr 2 min 56 sec) 
Heartbeat CPU  0 instructions:   67000000 cycles:   52982034 heartbeat IPC: 1.26358 cumulative IPC: 1.26458 (Simulation time: 0 hr 2 min 58 sec) 
Heartbeat CPU  0 instructions:   68000000 cycles:   53773292 heartbeat IPC: 1.26381 cumulative IPC: 1.26457 (Simulation time: 0 hr 3 min 1 sec) 
Heartbeat CPU  0 instructions:   69000001 cycles:   54564780 heartbeat IPC: 1.26344 cumulative IPC: 1.26455 (Simulation time: 0 hr 3 min 4 sec) 
Heartbeat CPU  0 instructions:   70000002 cycles:   55356048 heartbeat IPC: 1.26380 cumulative IPC: 1.26454 (Simulation time: 0 hr 3 min 6 sec) 
Heartbeat CPU  0 instructions:   71000001 cycles:   56147504 heartbeat IPC: 1.26349 cumulative IPC: 1.26453 (Simulation time: 0 hr 3 min 9 sec) 
Heartbeat CPU  0 instructions:   72000000 cycles:   56938700 heartbeat IPC: 1.26391 cumulative IPC: 1.26452 (Simulation time: 0 hr 3 min 12 sec) 
Heartbeat CPU  0 instructions:   73000003 cycles:   57730491 heartbeat IPC: 1.26296 cumulative IPC: 1.26450 (Simulation time: 0 hr 3 min 14 sec) 
Heartbeat CPU  0 instructions:   74000003 cycles:   58521813 heartbeat IPC: 1.26371 cumulative IPC: 1.26449 (Simulation time: 0 hr 3 min 17 sec) 
Heartbeat CPU  0 instructions:   75000001 cycles:   59313200 heartbeat IPC: 1.26360 cumulative IPC: 1.26447 (Simulation time: 0 hr 3 min 19 sec) 
Heartbeat CPU  0 instructions:   76000000 cycles:   60104785 heartbeat IPC: 1.26329 cumulative IPC: 1.26446 (Simulation time: 0 hr 3 min 22 sec) 
Heartbeat CPU  0 instructions:   77000002 cycles:   60896056 heartbeat IPC: 1.26379 cumulative IPC: 1.26445 (Simulation time: 0 hr 3 min 25 sec) 
Heartbeat CPU  0 instructions:   78000001 cycles:   61687494 heartbeat IPC: 1.26352 cumulative IPC: 1.26444 (Simulation time: 0 hr 3 min 27 sec) 
Heartbeat CPU  0 instructions:   79000000 cycles:   62478812 heartbeat IPC: 1.26371 cumulative IPC: 1.26443 (Simulation time: 0 hr 3 min 30 sec) 
Heartbeat CPU  0 instructions:   80000000 cycles:   63270248 heartbeat IPC: 1.26353 cumulative IPC: 1.26442 (Simulation time: 0 hr 3 min 33 sec) 
Heartbeat CPU  0 instructions:   81000000 cycles:   64061611 heartbeat IPC: 1.26364 cumulative IPC: 1.26441 (Simulation time: 0 hr 3 min 35 sec) 
Heartbeat CPU  0 instructions:   82000002 cycles:   64852908 heartbeat IPC: 1.26375 cumulative IPC: 1.26440 (Simulation time: 0 hr 3 min 38 sec) 
Heartbeat CPU  0 instructions:   83000000 cycles:   65644282 heartbeat IPC: 1.26362 cumulative IPC: 1.26439 (Simulation time: 0 hr 3 min 40 sec) 
Heartbeat CPU  0 instructions:   84000000 cycles:   66435709 heartbeat IPC: 1.26354 cumulative IPC: 1.26438 (Simulation time: 0 hr 3 min 43 sec) 
Heartbeat CPU  0 instructions:   85000000 cycles:   67227130 heartbeat IPC: 1.26355 cumulative IPC: 1.26437 (Simulation time: 0 hr 3 min 46 sec) 
Heartbeat CPU  0 instructions:   86000002 cycles:   68018468 heartbeat IPC: 1.26369 cumulative IPC: 1.26436 (Simulation time: 0 hr 3 min 48 sec) 
Heartbeat CPU  0 instructions:   87000000 cycles:   68809856 heartbeat IPC: 1.26360 cumulative IPC: 1.26435 (Simulation time: 0 hr 3 min 51 sec) 
Heartbeat CPU  0 instructions:   88000000 cycles:   69601104 heartbeat IPC: 1.26383 cumulative IPC: 1.26435 (Simulation time: 0 hr 3 min 54 sec) 
Heartbeat CPU  0 instructions:   89000000 cycles:   70392591 heartbeat IPC: 1.26344 cumulative IPC: 1.26434 (Simulation time: 0 hr 3 min 56 sec) 
Heartbeat CPU  0 instructions:   90000003 cycles:   71183904 heartbeat IPC: 1.26373 cumulative IPC: 1.26433 (Simulation time: 0 hr 3 min 59 sec) 
Heartbeat CPU  0 instructions:   91000000 cycles:   71975166 heartbeat IPC: 1.26380 cumulative IPC: 1.26433 (Simulation time: 0 hr 4 min 2 sec) 
Heartbeat CPU  0 instructions:   92000000 cycles:   72766536 heartbeat IPC: 1.26363 cumulative IPC: 1.26432 (Simulation time: 0 hr 4 min 4 sec) 
Heartbeat CPU  0 instructions:   93000001 cycles:   73557784 heartbeat IPC: 1.26383 cumulative IPC: 1.26431 (Simulation time: 0 hr 4 min 7 sec) 
Heartbeat CPU  0 instructions:   94000001 cycles:   74349282 heartbeat IPC: 1.26343 cumulative IPC: 1.26430 (Simulation time: 0 hr 4 min 9 sec) 
Heartbeat CPU  0 instructions:   95000000 cycles:   75140587 heartbeat IPC: 1.26373 cumulative IPC: 1.26430 (Simulation time: 0 hr 4 min 12 sec) 
Heartbeat CPU  0 instructions:   96000000 cycles:   75931916 heartbeat IPC: 1.26370 cumulative IPC: 1.26429 (Simulation time: 0 hr 4 min 15 sec) 
Heartbeat CPU  0 instructions:   97000003 cycles:   76723431 heartbeat IPC: 1.26340 cumulative IPC: 1.26428 (Simulation time: 0 hr 4 min 17 sec) 
Heartbeat CPU  0 instructions:   98000003 cycles:   77514760 heartbeat IPC: 1.26370 cumulative IPC: 1.26428 (Simulation time: 0 hr 4 min 20 sec) 
Heartbeat CPU  0 instructions:   99000003 cycles:   78306071 heartbeat IPC: 1.26373 cumulative IPC: 1.26427 (Simulation time: 0 hr 4 min 22 sec) 
Heartbeat CPU  0 instructions:  100000000 cycles:   79097342 heartbeat IPC: 1.26379 cumulative IPC: 1.26426 (Simulation time: 0 hr 4 min 25 sec) 

Warmup complete CPU  0 instructions:  100000001 cycles:   79097343 (Simulation time: 0 hr 4 min 25 sec) 

Heartbeat CPU  0 instructions:  101000001 cycles:   82336371 heartbeat IPC: 0.30873 cumulative IPC: 0.30873 (Simulation time: 0 hr 4 min 29 sec) 
Heartbeat CPU  0 instructions:  102000002 cycles:   85593488 heartbeat IPC: 0.30702 cumulative IPC: 0.30788 (Simulation time: 0 hr 4 min 33 sec) 
Heartbeat CPU  0 instructions:  103000003 cycles:   88845239 heartbeat IPC: 0.30753 cumulative IPC: 0.30776 (Simulation time: 0 hr 4 min 38 sec) 
Heartbeat CPU  0 instructions:  104000000 cycles:   92060262 heartbeat IPC: 0.31104 cumulative IPC: 0.30857 (Simulation time: 0 hr 4 min 42 sec) 
Heartbeat CPU  0 instructions:  105000001 cycles:   95297004 heartbeat IPC: 0.30895 cumulative IPC: 0.30865 (Simulation time: 0 hr 4 min 46 sec) 
Heartbeat CPU  0 instructions:  106000002 cycles:   98563396 heartbeat IPC: 0.30615 cumulative IPC: 0.30823 (Simulation time: 0 hr 4 min 50 sec) 
Heartbeat CPU  0 instructions:  107000000 cycles:  101783772 heartbeat IPC: 0.31052 cumulative IPC: 0.30855 (Simulation time: 0 hr 4 min 54 sec) 
Heartbeat CPU  0 instructions:  108000000 cycles:  105049700 heartbeat IPC: 0.30619 cumulative IPC: 0.30826 (Simulation time: 0 hr 4 min 58 sec) 
Heartbeat CPU  0 instructions:  109000000 cycles:  108292658 heartbeat IPC: 0.30836 cumulative IPC: 0.30827 (Simulation time: 0 hr 5 min 2 sec) 
Heartbeat CPU  0 instructions:  110000002 cycles:  111525831 heartbeat IPC: 0.30929 cumulative IPC: 0.30837 (Simulation time: 0 hr 5 min 7 sec) 
Heartbeat CPU  0 instructions:  111000001 cycles:  114760685 heartbeat IPC: 0.30913 cumulative IPC: 0.30844 (Simulation time: 0 hr 5 min 11 sec) 
Heartbeat CPU  0 instructions:  112000000 cycles:  118002051 heartbeat IPC: 0.30851 cumulative IPC: 0.30845 (Simulation time: 0 hr 5 min 15 sec) 
Heartbeat CPU  0 instructions:  113000000 cycles:  121227360 heartbeat IPC: 0.31005 cumulative IPC: 0.30857 (Simulation time: 0 hr 5 min 19 sec) 
Heartbeat CPU  0 instructions:  114000002 cycles:  124500123 heartbeat IPC: 0.30555 cumulative IPC: 0.30835 (Simulation time: 0 hr 5 min 23 sec) 
Heartbeat CPU  0 instructions:  115000002 cycles:  127768134 heartbeat IPC: 0.30600 cumulative IPC: 0.30819 (Simulation time: 0 hr 5 min 27 sec) 
Heartbeat CPU  0 instructions:  116000000 cycles:  131035434 heartbeat IPC: 0.30606 cumulative IPC: 0.30806 (Simulation time: 0 hr 5 min 31 sec) 
Heartbeat CPU  0 instructions:  117000001 cycles:  134288082 heartbeat IPC: 0.30744 cumulative IPC: 0.30802 (Simulation time: 0 hr 5 min 36 sec) 
Heartbeat CPU  0 instructions:  118000000 cycles:  137543940 heartbeat IPC: 0.30714 cumulative IPC: 0.30797 (Simulation time: 0 hr 5 min 40 sec) 
Heartbeat CPU  0 instructions:  119000000 cycles:  140780256 heartbeat IPC: 0.30899 cumulative IPC: 0.30803 (Simulation time: 0 hr 5 min 44 sec) 
Heartbeat CPU  0 instructions:  120000000 cycles:  144046285 heartbeat IPC: 0.30618 cumulative IPC: 0.30793 (Simulation time: 0 hr 5 min 48 sec) 
Heartbeat CPU  0 instructions:  121000003 cycles:  147281422 heartbeat IPC: 0.30911 cumulative IPC: 0.30799 (Simulation time: 0 hr 5 min 52 sec) 
Heartbeat CPU  0 instructions:  122000001 cycles:  150483933 heartbeat IPC: 0.31225 cumulative IPC: 0.30818 (Simulation time: 0 hr 5 min 56 sec) 
Heartbeat CPU  0 instructions:  123000000 cycles:  153751973 heartbeat IPC: 0.30599 cumulative IPC: 0.30809 (Simulation time: 0 hr 6 min 1 sec) 
Heartbeat CPU  0 instructions:  124000000 cycles:  157002679 heartbeat IPC: 0.30763 cumulative IPC: 0.30807 (Simulation time: 0 hr 6 min 5 sec) 
Heartbeat CPU  0 instructions:  125000001 cycles:  160224626 heartbeat IPC: 0.31037 cumulative IPC: 0.30816 (Simulation time: 0 hr 6 min 9 sec) 
Heartbeat CPU  0 instructions:  126000001 cycles:  163531899 heartbeat IPC: 0.30236 cumulative IPC: 0.30793 (Simulation time: 0 hr 6 min 13 sec) 
Heartbeat CPU  0 instructions:  127000003 cycles:  166742236 heartbeat IPC: 0.31149 cumulative IPC: 0.30806 (Simulation time: 0 hr 6 min 17 sec) 
Heartbeat CPU  0 instructions:  128000000 cycles:  170001433 heartbeat IPC: 0.30682 cumulative IPC: 0.30802 (Simulation time: 0 hr 6 min 21 sec) 
Heartbeat CPU  0 instructions:  129000003 cycles:  173239688 heartbeat IPC: 0.30881 cumulative IPC: 0.30804 (Simulation time: 0 hr 6 min 26 sec) 
Heartbeat CPU  0 instructions:  130000001 cycles:  176468335 heartbeat IPC: 0.30973 cumulative IPC: 0.30810 (Simulation time: 0 hr 6 min 30 sec) 
Heartbeat CPU  0 instructions:  131000000 cycles:  179708147 heartbeat IPC: 0.30866 cumulative IPC: 0.30812 (Simulation time: 0 hr 6 min 34 sec) 
Heartbeat CPU  0 instructions:  132000000 cycles:  182967657 heartbeat IPC: 0.30679 cumulative IPC: 0.30808 (Simulation time: 0 hr 6 min 38 sec) 
Heartbeat CPU  0 instructions:  133000000 cycles:  186213912 heartbeat IPC: 0.30805 cumulative IPC: 0.30808 (Simulation time: 0 hr 6 min 42 sec) 
Heartbeat CPU  0 instructions:  134000002 cycles:  189479019 heartbeat IPC: 0.30627 cumulative IPC: 0.30802 (Simulation time: 0 hr 6 min 46 sec) 
Heartbeat CPU  0 instructions:  135000003 cycles:  192726000 heartbeat IPC: 0.30798 cumulative IPC: 0.30802 (Simulation time: 0 hr 6 min 51 sec) 
Heartbeat CPU  0 instructions:  136000000 cycles:  195970301 heartbeat IPC: 0.30823 cumulative IPC: 0.30803 (Simulation time: 0 hr 6 min 55 sec) 
Heartbeat CPU  0 instructions:  137000000 cycles:  199209434 heartbeat IPC: 0.30872 cumulative IPC: 0.30805 (Simulation time: 0 hr 6 min 59 sec) 
Heartbeat CPU  0 instructions:  138000000 cycles:  202470234 heartbeat IPC: 0.30667 cumulative IPC: 0.30801 (Simulation time: 0 hr 7 min 3 sec) 
Heartbeat CPU  0 instructions:  139000002 cycles:  205706489 heartbeat IPC: 0.30900 cumulative IPC: 0.30803 (Simulation time: 0 hr 7 min 7 sec) 
Heartbeat CPU  0 instructions:  140000000 cycles:  208958084 heartbeat IPC: 0.30754 cumulative IPC: 0.30802 (Simulation time: 0 hr 7 min 11 sec) 
Heartbeat CPU  0 instructions:  141000002 cycles:  212207164 heartbeat IPC: 0.30778 cumulative IPC: 0.30802 (Simulation time: 0 hr 7 min 16 sec) 
Heartbeat CPU  0 instructions:  142000000 cycles:  215460732 heartbeat IPC: 0.30735 cumulative IPC: 0.30800 (Simulation time: 0 hr 7 min 20 sec) 
Heartbeat CPU  0 instructions:  143000003 cycles:  218720192 heartbeat IPC: 0.30680 cumulative IPC: 0.30797 (Simulation time: 0 hr 7 min 24 sec) 
Heartbeat CPU  0 instructions:  144000000 cycles:  221955665 heartbeat IPC: 0.30907 cumulative IPC: 0.30800 (Simulation time: 0 hr 7 min 28 sec) 
Heartbeat CPU  0 instructions:  145000003 cycles:  225201905 heartbeat IPC: 0.30805 cumulative IPC: 0.30800 (Simulation time: 0 hr 7 min 32 sec) 
Heartbeat CPU  0 instructions:  146000001 cycles:  228461251 heartbeat IPC: 0.30681 cumulative IPC: 0.30797 (Simulation time: 0 hr 7 min 36 sec) 
Heartbeat CPU  0 instructions:  147000003 cycles:  231695828 heartbeat IPC: 0.30916 cumulative IPC: 0.30800 (Simulation time: 0 hr 7 min 41 sec) 
Heartbeat CPU  0 instructions:  148000000 cycles:  234924852 heartbeat IPC: 0.30969 cumulative IPC: 0.30803 (Simulation time: 0 hr 7 min 45 sec) 
Heartbeat CPU  0 instructions:  149000003 cycles:  238163427 heartbeat IPC: 0.30878 cumulative IPC: 0.30805 (Simulation time: 0 hr 7 min 49 sec) 
Heartbeat CPU  0 instructions:  150000001 cycles:  241421216 heartbeat IPC: 0.30696 cumulative IPC: 0.30803 (Simulation time: 0 hr 7 min 53 sec) 
Heartbeat CPU  0 instructions:  151000003 cycles:  244699675 heartbeat IPC: 0.30502 cumulative IPC: 0.30797 (Simulation time: 0 hr 7 min 57 sec) 
Heartbeat CPU  0 instructions:  152000000 cycles:  247969973 heartbeat IPC: 0.30578 cumulative IPC: 0.30792 (Simulation time: 0 hr 8 min 1 sec) 
Heartbeat CPU  0 instructions:  153000003 cycles:  251197455 heartbeat IPC: 0.30984 cumulative IPC: 0.30796 (Simulation time: 0 hr 8 min 5 sec) 
Heartbeat CPU  0 instructions:  154000001 cycles:  254462044 heartbeat IPC: 0.30632 cumulative IPC: 0.30793 (Simulation time: 0 hr 8 min 10 sec) 
Heartbeat CPU  0 instructions:  155000001 cycles:  257714517 heartbeat IPC: 0.30746 cumulative IPC: 0.30792 (Simulation time: 0 hr 8 min 14 sec) 
Heartbeat CPU  0 instructions:  156000000 cycles:  260941919 heartbeat IPC: 0.30985 cumulative IPC: 0.30796 (Simulation time: 0 hr 8 min 18 sec) 
Heartbeat CPU  0 instructions:  157000001 cycles:  264230111 heartbeat IPC: 0.30412 cumulative IPC: 0.30789 (Simulation time: 0 hr 8 min 22 sec) 
Heartbeat CPU  0 instructions:  158000003 cycles:  267438985 heartbeat IPC: 0.31164 cumulative IPC: 0.30795 (Simulation time: 0 hr 8 min 26 sec) 
Heartbeat CPU  0 instructions:  159000003 cycles:  270710954 heartbeat IPC: 0.30563 cumulative IPC: 0.30791 (Simulation time: 0 hr 8 min 30 sec) 
Heartbeat CPU  0 instructions:  160000000 cycles:  273975316 heartbeat IPC: 0.30634 cumulative IPC: 0.30788 (Simulation time: 0 hr 8 min 34 sec) 
Heartbeat CPU  0 instructions:  161000002 cycles:  277201233 heartbeat IPC: 0.30999 cumulative IPC: 0.30792 (Simulation time: 0 hr 8 min 39 sec) 
Heartbeat CPU  0 instructions:  162000000 cycles:  280411396 heartbeat IPC: 0.31151 cumulative IPC: 0.30798 (Simulation time: 0 hr 8 min 43 sec) 
Heartbeat CPU  0 instructions:  163000000 cycles:  283630562 heartbeat IPC: 0.31064 cumulative IPC: 0.30802 (Simulation time: 0 hr 8 min 47 sec) 
Heartbeat CPU  0 instructions:  164000000 cycles:  286805333 heartbeat IPC: 0.31498 cumulative IPC: 0.30812 (Simulation time: 0 hr 8 min 51 sec) 
Heartbeat CPU  0 instructions:  165000002 cycles:  290095504 heartbeat IPC: 0.30394 cumulative IPC: 0.30806 (Simulation time: 0 hr 8 min 55 sec) 
Heartbeat CPU  0 instructions:  166000003 cycles:  293345733 heartbeat IPC: 0.30767 cumulative IPC: 0.30805 (Simulation time: 0 hr 8 min 59 sec) 
Heartbeat CPU  0 instructions:  167000002 cycles:  296604437 heartbeat IPC: 0.30687 cumulative IPC: 0.30804 (Simulation time: 0 hr 9 min 4 sec) 
Heartbeat CPU  0 instructions:  168000000 cycles:  299869161 heartbeat IPC: 0.30630 cumulative IPC: 0.30801 (Simulation time: 0 hr 9 min 8 sec) 
Heartbeat CPU  0 instructions:  169000001 cycles:  303130055 heartbeat IPC: 0.30666 cumulative IPC: 0.30799 (Simulation time: 0 hr 9 min 12 sec) 
Heartbeat CPU  0 instructions:  170000000 cycles:  306377611 heartbeat IPC: 0.30792 cumulative IPC: 0.30799 (Simulation time: 0 hr 9 min 16 sec) 
Heartbeat CPU  0 instructions:  171000003 cycles:  309612584 heartbeat IPC: 0.30912 cumulative IPC: 0.30801 (Simulation time: 0 hr 9 min 20 sec) 
Heartbeat CPU  0 instructions:  172000000 cycles:  312856850 heartbeat IPC: 0.30824 cumulative IPC: 0.30801 (Simulation time: 0 hr 9 min 24 sec) 
Heartbeat CPU  0 instructions:  173000000 cycles:  316104380 heartbeat IPC: 0.30793 cumulative IPC: 0.30801 (Simulation time: 0 hr 9 min 28 sec) 
Heartbeat CPU  0 instructions:  174000001 cycles:  319332898 heartbeat IPC: 0.30974 cumulative IPC: 0.30803 (Simulation time: 0 hr 9 min 33 sec) 
Heartbeat CPU  0 instructions:  175000003 cycles:  322601414 heartbeat IPC: 0.30595 cumulative IPC: 0.30800 (Simulation time: 0 hr 9 min 37 sec) 
Heartbeat CPU  0 instructions:  176000000 cycles:  325890845 heartbeat IPC: 0.30400 cumulative IPC: 0.30795 (Simulation time: 0 hr 9 min 41 sec) 
Heartbeat CPU  0 instructions:  177000003 cycles:  329126486 heartbeat IPC: 0.30906 cumulative IPC: 0.30796 (Simulation time: 0 hr 9 min 45 sec) 
Heartbeat CPU  0 instructions:  178000001 cycles:  332354163 heartbeat IPC: 0.30982 cumulative IPC: 0.30799 (Simulation time: 0 hr 9 min 49 sec) 
Heartbeat CPU  0 instructions:  179000000 cycles:  335609245 heartbeat IPC: 0.30721 cumulative IPC: 0.30798 (Simulation time: 0 hr 9 min 53 sec) 
Heartbeat CPU  0 instructions:  180000000 cycles:  338878435 heartbeat IPC: 0.30589 cumulative IPC: 0.30795 (Simulation time: 0 hr 9 min 58 sec) 
Heartbeat CPU  0 instructions:  181000000 cycles:  342133071 heartbeat IPC: 0.30725 cumulative IPC: 0.30794 (Simulation time: 0 hr 10 min 2 sec) 
Heartbeat CPU  0 instructions:  182000001 cycles:  345398874 heartbeat IPC: 0.30620 cumulative IPC: 0.30792 (Simulation time: 0 hr 10 min 6 sec) 
Heartbeat CPU  0 instructions:  183000002 cycles:  348645632 heartbeat IPC: 0.30800 cumulative IPC: 0.30792 (Simulation time: 0 hr 10 min 10 sec) 
Heartbeat CPU  0 instructions:  184000000 cycles:  351885106 heartbeat IPC: 0.30869 cumulative IPC: 0.30793 (Simulation time: 0 hr 10 min 14 sec) 
Heartbeat CPU  0 instructions:  185000001 cycles:  355123765 heartbeat IPC: 0.30877 cumulative IPC: 0.30794 (Simulation time: 0 hr 10 min 18 sec) 
Heartbeat CPU  0 instructions:  186000000 cycles:  358335979 heartbeat IPC: 0.31131 cumulative IPC: 0.30798 (Simulation time: 0 hr 10 min 22 sec) 
Heartbeat CPU  0 instructions:  187000000 cycles:  361290878 heartbeat IPC: 0.33842 cumulative IPC: 0.30830 (Simulation time: 0 hr 10 min 26 sec) 
Heartbeat CPU  0 instructions:  188000000 cycles:  363320345 heartbeat IPC: 0.49274 cumulative IPC: 0.30962 (Simulation time: 0 hr 10 min 30 sec) 
Heartbeat CPU  0 instructions:  189000002 cycles:  365214051 heartbeat IPC: 0.52807 cumulative IPC: 0.31106 (Simulation time: 0 hr 10 min 34 sec) 
Heartbeat CPU  0 instructions:  190000003 cycles:  367126220 heartbeat IPC: 0.52297 cumulative IPC: 0.31247 (Simulation time: 0 hr 10 min 37 sec) 
Heartbeat CPU  0 instructions:  191000000 cycles:  369023816 heartbeat IPC: 0.52698 cumulative IPC: 0.31387 (Simulation time: 0 hr 10 min 41 sec) 
Heartbeat CPU  0 instructions:  192000000 cycles:  370863496 heartbeat IPC: 0.54357 cumulative IPC: 0.31532 (Simulation time: 0 hr 10 min 44 sec) 
Heartbeat CPU  0 instructions:  193000001 cycles:  372681845 heartbeat IPC: 0.54995 cumulative IPC: 0.31677 (Simulation time: 0 hr 10 min 48 sec) 
Heartbeat CPU  0 instructions:  194000000 cycles:  374565676 heartbeat IPC: 0.53083 cumulative IPC: 0.31814 (Simulation time: 0 hr 10 min 52 sec) 
Heartbeat CPU  0 instructions:  195000000 cycles:  376461853 heartbeat IPC: 0.52738 cumulative IPC: 0.31947 (Simulation time: 0 hr 10 min 55 sec) 
Heartbeat CPU  0 instructions:  196000000 cycles:  378337402 heartbeat IPC: 0.53318 cumulative IPC: 0.32081 (Simulation time: 0 hr 10 min 59 sec) 
Heartbeat CPU  0 instructions:  197000000 cycles:  380146439 heartbeat IPC: 0.55278 cumulative IPC: 0.32221 (Simulation time: 0 hr 11 min 2 sec) 
Heartbeat CPU  0 instructions:  198000003 cycles:  381977573 heartbeat IPC: 0.54611 cumulative IPC: 0.32356 (Simulation time: 0 hr 11 min 6 sec) 
Heartbeat CPU  0 instructions:  199000001 cycles:  383928352 heartbeat IPC: 0.51261 cumulative IPC: 0.32477 (Simulation time: 0 hr 11 min 9 sec) 
Heartbeat CPU  0 instructions:  200000000 cycles:  385889028 heartbeat IPC: 0.51003 cumulative IPC: 0.32595 (Simulation time: 0 hr 11 min 13 sec) 
Heartbeat CPU  0 instructions:  201000003 cycles:  387962356 heartbeat IPC: 0.48232 cumulative IPC: 0.32700 (Simulation time: 0 hr 11 min 16 sec) 
Heartbeat CPU  0 instructions:  202000000 cycles:  390082396 heartbeat IPC: 0.47169 cumulative IPC: 0.32799 (Simulation time: 0 hr 11 min 20 sec) 
Heartbeat CPU  0 instructions:  203000001 cycles:  392233474 heartbeat IPC: 0.46488 cumulative IPC: 0.32893 (Simulation time: 0 hr 11 min 24 sec) 
Heartbeat CPU  0 instructions:  204000000 cycles:  394305387 heartbeat IPC: 0.48265 cumulative IPC: 0.32994 (Simulation time: 0 hr 11 min 27 sec) 
Heartbeat CPU  0 instructions:  205000000 cycles:  396473854 heartbeat IPC: 0.46116 cumulative IPC: 0.33084 (Simulation time: 0 hr 11 min 31 sec) 
Heartbeat CPU  0 instructions:  206000002 cycles:  398689127 heartbeat IPC: 0.45141 cumulative IPC: 0.33167 (Simulation time: 0 hr 11 min 35 sec) 
Heartbeat CPU  0 instructions:  207000000 cycles:  400936617 heartbeat IPC: 0.44494 cumulative IPC: 0.33246 (Simulation time: 0 hr 11 min 39 sec) 
Heartbeat CPU  0 instructions:  208000000 cycles:  403078305 heartbeat IPC: 0.46692 cumulative IPC: 0.33335 (Simulation time: 0 hr 11 min 42 sec) 
Heartbeat CPU  0 instructions:  209000003 cycles:  405315040 heartbeat IPC: 0.44708 cumulative IPC: 0.33413 (Simulation time: 0 hr 11 min 46 sec) 
Heartbeat CPU  0 instructions:  210000000 cycles:  407537163 heartbeat IPC: 0.45002 cumulative IPC: 0.33492 (Simulation time: 0 hr 11 min 50 sec) 
Heartbeat CPU  0 instructions:  211000003 cycles:  409638793 heartbeat IPC: 0.47582 cumulative IPC: 0.33581 (Simulation time: 0 hr 11 min 53 sec) 
Heartbeat CPU  0 instructions:  212000000 cycles:  411846884 heartbeat IPC: 0.45288 cumulative IPC: 0.33659 (Simulation time: 0 hr 11 min 57 sec) 
Heartbeat CPU  0 instructions:  213000003 cycles:  413937616 heartbeat IPC: 0.47830 cumulative IPC: 0.33747 (Simulation time: 0 hr 12 min 1 sec) 
Heartbeat CPU  0 instructions:  214000000 cycles:  416054249 heartbeat IPC: 0.47245 cumulative IPC: 0.33832 (Simulation time: 0 hr 12 min 4 sec) 
Heartbeat CPU  0 instructions:  215000002 cycles:  418086572 heartbeat IPC: 0.49205 cumulative IPC: 0.33924 (Simulation time: 0 hr 12 min 8 sec) 
Heartbeat CPU  0 instructions:  216000000 cycles:  420261339 heartbeat IPC: 0.45982 cumulative IPC: 0.34001 (Simulation time: 0 hr 12 min 12 sec) 
Heartbeat CPU  0 instructions:  217000001 cycles:  422532785 heartbeat IPC: 0.44025 cumulative IPC: 0.34068 (Simulation time: 0 hr 12 min 15 sec) 
Heartbeat CPU  0 instructions:  218000000 cycles:  424656381 heartbeat IPC: 0.47090 cumulative IPC: 0.34148 (Simulation time: 0 hr 12 min 19 sec) 
Heartbeat CPU  0 instructions:  219000000 cycles:  426927272 heartbeat IPC: 0.44036 cumulative IPC: 0.34212 (Simulation time: 0 hr 12 min 23 sec) 
Heartbeat CPU  0 instructions:  220000000 cycles:  429076813 heartbeat IPC: 0.46522 cumulative IPC: 0.34288 (Simulation time: 0 hr 12 min 27 sec) 
Heartbeat CPU  0 instructions:  221000000 cycles:  431215189 heartbeat IPC: 0.46764 cumulative IPC: 0.34363 (Simulation time: 0 hr 12 min 30 sec) 
Heartbeat CPU  0 instructions:  222000000 cycles:  433442885 heartbeat IPC: 0.44889 cumulative IPC: 0.34430 (Simulation time: 0 hr 12 min 34 sec) 
Heartbeat CPU  0 instructions:  223000003 cycles:  435666545 heartbeat IPC: 0.44971 cumulative IPC: 0.34495 (Simulation time: 0 hr 12 min 38 sec) 
Heartbeat CPU  0 instructions:  224000000 cycles:  437844533 heartbeat IPC: 0.45914 cumulative IPC: 0.34565 (Simulation time: 0 hr 12 min 41 sec) 
Heartbeat CPU  0 instructions:  225000001 cycles:  439997693 heartbeat IPC: 0.46443 cumulative IPC: 0.34636 (Simulation time: 0 hr 12 min 45 sec) 
Heartbeat CPU  0 instructions:  226000002 cycles:  442201273 heartbeat IPC: 0.45381 cumulative IPC: 0.34701 (Simulation time: 0 hr 12 min 49 sec) 
Heartbeat CPU  0 instructions:  227000003 cycles:  444330309 heartbeat IPC: 0.46970 cumulative IPC: 0.34772 (Simulation time: 0 hr 12 min 52 sec) 
Heartbeat CPU  0 instructions:  228000000 cycles:  446488120 heartbeat IPC: 0.46343 cumulative IPC: 0.34840 (Simulation time: 0 hr 12 min 56 sec) 
Heartbeat CPU  0 instructions:  229000000 cycles:  448718555 heartbeat IPC: 0.44834 cumulative IPC: 0.34901 (Simulation time: 0 hr 13 min 0 sec) 
Heartbeat CPU  0 instructions:  230000003 cycles:  450939126 heartbeat IPC: 0.45034 cumulative IPC: 0.34961 (Simulation time: 0 hr 13 min 4 sec) 
Heartbeat CPU  0 instructions:  231000000 cycles:  453071832 heartbeat IPC: 0.46889 cumulative IPC: 0.35029 (Simulation time: 0 hr 13 min 8 sec) 
Heartbeat CPU  0 instructions:  232000000 cycles:  455279165 heartbeat IPC: 0.45304 cumulative IPC: 0.35089 (Simulation time: 0 hr 13 min 12 sec) 
Heartbeat CPU  0 instructions:  233000003 cycles:  457528756 heartbeat IPC: 0.44453 cumulative IPC: 0.35145 (Simulation time: 0 hr 13 min 16 sec) 
Heartbeat CPU  0 instructions:  234000002 cycles:  459716874 heartbeat IPC: 0.45701 cumulative IPC: 0.35206 (Simulation time: 0 hr 13 min 20 sec) 
Heartbeat CPU  0 instructions:  235000001 cycles:  461783833 heartbeat IPC: 0.48380 cumulative IPC: 0.35277 (Simulation time: 0 hr 13 min 24 sec) 
Heartbeat CPU  0 instructions:  236000000 cycles:  463968213 heartbeat IPC: 0.45780 cumulative IPC: 0.35337 (Simulation time: 0 hr 13 min 28 sec) 
Heartbeat CPU  0 instructions:  237000002 cycles:  466132074 heartbeat IPC: 0.46214 cumulative IPC: 0.35397 (Simulation time: 0 hr 13 min 31 sec) 
Heartbeat CPU  0 instructions:  238000000 cycles:  468267258 heartbeat IPC: 0.46834 cumulative IPC: 0.35460 (Simulation time: 0 hr 13 min 35 sec) 
Heartbeat CPU  0 instructions:  239000000 cycles:  470424218 heartbeat IPC: 0.46362 cumulative IPC: 0.35520 (Simulation time: 0 hr 13 min 39 sec) 
Heartbeat CPU  0 instructions:  240000000 cycles:  472684199 heartbeat IPC: 0.44248 cumulative IPC: 0.35570 (Simulation time: 0 hr 13 min 43 sec) 
Heartbeat CPU  0 instructions:  241000002 cycles:  474751164 heartbeat IPC: 0.48380 cumulative IPC: 0.35637 (Simulation time: 0 hr 13 min 47 sec) 
Heartbeat CPU  0 instructions:  242000000 cycles:  476838782 heartbeat IPC: 0.47901 cumulative IPC: 0.35702 (Simulation time: 0 hr 13 min 50 sec) 
Heartbeat CPU  0 instructions:  243000003 cycles:  479095719 heartbeat IPC: 0.44308 cumulative IPC: 0.35750 (Simulation time: 0 hr 13 min 54 sec) 
Heartbeat CPU  0 instructions:  244000000 cycles:  481203603 heartbeat IPC: 0.47441 cumulative IPC: 0.35811 (Simulation time: 0 hr 13 min 58 sec) 
Heartbeat CPU  0 instructions:  245000002 cycles:  483413805 heartbeat IPC: 0.45245 cumulative IPC: 0.35863 (Simulation time: 0 hr 14 min 2 sec) 
Heartbeat CPU  0 instructions:  246000003 cycles:  485457178 heartbeat IPC: 0.48939 cumulative IPC: 0.35929 (Simulation time: 0 hr 14 min 6 sec) 
Heartbeat CPU  0 instructions:  247000002 cycles:  487495139 heartbeat IPC: 0.49069 cumulative IPC: 0.35994 (Simulation time: 0 hr 14 min 10 sec) 
Heartbeat CPU  0 instructions:  248000000 cycles:  489702738 heartbeat IPC: 0.45298 cumulative IPC: 0.36044 (Simulation time: 0 hr 14 min 13 sec) 
Heartbeat CPU  0 instructions:  249000002 cycles:  491927261 heartbeat IPC: 0.44954 cumulative IPC: 0.36092 (Simulation time: 0 hr 14 min 17 sec) 
Heartbeat CPU  0 instructions:  250000003 cycles:  494055145 heartbeat IPC: 0.46995 cumulative IPC: 0.36148 (Simulation time: 0 hr 14 min 21 sec) 
Heartbeat CPU  0 instructions:  251000001 cycles:  496216530 heartbeat IPC: 0.46267 cumulative IPC: 0.36201 (Simulation time: 0 hr 14 min 25 sec) 
Heartbeat CPU  0 instructions:  252000000 cycles:  498447428 heartbeat IPC: 0.44825 cumulative IPC: 0.36247 (Simulation time: 0 hr 14 min 29 sec) 
Heartbeat CPU  0 instructions:  253000000 cycles:  500636253 heartbeat IPC: 0.45687 cumulative IPC: 0.36296 (Simulation time: 0 hr 14 min 33 sec) 
Heartbeat CPU  0 instructions:  254000003 cycles:  502795036 heartbeat IPC: 0.46323 cumulative IPC: 0.36347 (Simulation time: 0 hr 14 min 36 sec) 
Heartbeat CPU  0 instructions:  255000000 cycles:  505012705 heartbeat IPC: 0.45092 cumulative IPC: 0.36392 (Simulation time: 0 hr 14 min 40 sec) 
Heartbeat CPU  0 instructions:  256000000 cycles:  507188838 heartbeat IPC: 0.45953 cumulative IPC: 0.36441 (Simulation time: 0 hr 14 min 44 sec) 
Heartbeat CPU  0 instructions:  257000003 cycles:  509255729 heartbeat IPC: 0.48382 cumulative IPC: 0.36498 (Simulation time: 0 hr 14 min 48 sec) 
Heartbeat CPU  0 instructions:  258000003 cycles:  511395704 heartbeat IPC: 0.46730 cumulative IPC: 0.36549 (Simulation time: 0 hr 14 min 52 sec) 
Heartbeat CPU  0 instructions:  259000002 cycles:  513513268 heartbeat IPC: 0.47224 cumulative IPC: 0.36601 (Simulation time: 0 hr 14 min 56 sec) 
Heartbeat CPU  0 instructions:  260000000 cycles:  515771527 heartbeat IPC: 0.44282 cumulative IPC: 0.36641 (Simulation time: 0 hr 14 min 59 sec) 
Heartbeat CPU  0 instructions:  261000000 cycles:  517928241 heartbeat IPC: 0.46367 cumulative IPC: 0.36688 (Simulation time: 0 hr 15 min 3 sec) 
Heartbeat CPU  0 instructions:  262000001 cycles:  520115581 heartbeat IPC: 0.45718 cumulative IPC: 0.36733 (Simulation time: 0 hr 15 min 7 sec) 
Heartbeat CPU  0 instructions:  263000002 cycles:  522283276 heartbeat IPC: 0.46132 cumulative IPC: 0.36779 (Simulation time: 0 hr 15 min 11 sec) 
Heartbeat CPU  0 instructions:  264000000 cycles:  524401293 heartbeat IPC: 0.47214 cumulative IPC: 0.36829 (Simulation time: 0 hr 15 min 15 sec) 
Heartbeat CPU  0 instructions:  265000003 cycles:  526599194 heartbeat IPC: 0.45498 cumulative IPC: 0.36871 (Simulation time: 0 hr 15 min 19 sec) 
Heartbeat CPU  0 instructions:  266000002 cycles:  528737611 heartbeat IPC: 0.46764 cumulative IPC: 0.36918 (Simulation time: 0 hr 15 min 23 sec) 
Heartbeat CPU  0 instructions:  267000003 cycles:  530996319 heartbeat IPC: 0.44273 cumulative IPC: 0.36955 (Simulation time: 0 hr 15 min 27 sec) 
Heartbeat CPU  0 instructions:  268000000 cycles:  533149646 heartbeat IPC: 0.46440 cumulative IPC: 0.37000 (Simulation time: 0 hr 15 min 31 sec) 
Heartbeat CPU  0 instructions:  269000002 cycles:  535230467 heartbeat IPC: 0.48058 cumulative IPC: 0.37051 (Simulation time: 0 hr 15 min 35 sec) 
Heartbeat CPU  0 instructions:  270000001 cycles:  537469113 heartbeat IPC: 0.44670 cumulative IPC: 0.37088 (Simulation time: 0 hr 15 min 39 sec) 
Heartbeat CPU  0 instructions:  271000000 cycles:  539500451 heartbeat IPC: 0.49229 cumulative IPC: 0.37141 (Simulation time: 0 hr 15 min 43 sec) 
Heartbeat CPU  0 instructions:  272000000 cycles:  541617764 heartbeat IPC: 0.47230 cumulative IPC: 0.37188 (Simulation time: 0 hr 15 min 47 sec) 
Heartbeat CPU  0 instructions:  273000001 cycles:  543876773 heartbeat IPC: 0.44267 cumulative IPC: 0.37222 (Simulation time: 0 hr 15 min 51 sec) 
Heartbeat CPU  0 instructions:  274000000 cycles:  545941218 heartbeat IPC: 0.48439 cumulative IPC: 0.37272 (Simulation time: 0 hr 15 min 55 sec) 
Heartbeat CPU  0 instructions:  275000002 cycles:  548143993 heartbeat IPC: 0.45397 cumulative IPC: 0.37310 (Simulation time: 0 hr 15 min 58 sec) 
Heartbeat CPU  0 instructions:  276000000 cycles:  550333465 heartbeat IPC: 0.45673 cumulative IPC: 0.37349 (Simulation time: 0 hr 16 min 3 sec) 
Heartbeat CPU  0 instructions:  277000001 cycles:  552511446 heartbeat IPC: 0.45914 cumulative IPC: 0.37388 (Simulation time: 0 hr 16 min 7 sec) 
Heartbeat CPU  0 instructions:  278000003 cycles:  554683879 heartbeat IPC: 0.46031 cumulative IPC: 0.37427 (Simulation time: 0 hr 16 min 10 sec) 
Heartbeat CPU  0 instructions:  279000002 cycles:  556952680 heartbeat IPC: 0.44076 cumulative IPC: 0.37459 (Simulation time: 0 hr 16 min 14 sec) 
Heartbeat CPU  0 instructions:  280000000 cycles:  559174160 heartbeat IPC: 0.45015 cumulative IPC: 0.37494 (Simulation time: 0 hr 16 min 18 sec) 
Heartbeat CPU  0 instructions:  281000001 cycles:  561307728 heartbeat IPC: 0.46870 cumulative IPC: 0.37535 (Simulation time: 0 hr 16 min 21 sec) 
Heartbeat CPU  0 instructions:  282000002 cycles:  563442278 heartbeat IPC: 0.46848 cumulative IPC: 0.37577 (Simulation time: 0 hr 16 min 25 sec) 
Heartbeat CPU  0 instructions:  283000001 cycles:  565642169 heartbeat IPC: 0.45457 cumulative IPC: 0.37612 (Simulation time: 0 hr 16 min 29 sec) 
Heartbeat CPU  0 instructions:  284000000 cycles:  567804841 heartbeat IPC: 0.46239 cumulative IPC: 0.37650 (Simulation time: 0 hr 16 min 33 sec) 
Heartbeat CPU  0 instructions:  285000001 cycles:  569977640 heartbeat IPC: 0.46024 cumulative IPC: 0.37687 (Simulation time: 0 hr 16 min 37 sec) 
Heartbeat CPU  0 instructions:  286000002 cycles:  572149129 heartbeat IPC: 0.46051 cumulative IPC: 0.37724 (Simulation time: 0 hr 16 min 41 sec) 
Heartbeat CPU  0 instructions:  287000000 cycles:  574444286 heartbeat IPC: 0.43570 cumulative IPC: 0.37751 (Simulation time: 0 hr 16 min 45 sec) 
Heartbeat CPU  0 instructions:  288000000 cycles:  576570552 heartbeat IPC: 0.47031 cumulative IPC: 0.37791 (Simulation time: 0 hr 16 min 49 sec) 
Heartbeat CPU  0 instructions:  289000003 cycles:  578687546 heartbeat IPC: 0.47237 cumulative IPC: 0.37831 (Simulation time: 0 hr 16 min 53 sec) 
Heartbeat CPU  0 instructions:  290000000 cycles:  580883569 heartbeat IPC: 0.45537 cumulative IPC: 0.37865 (Simulation time: 0 hr 16 min 56 sec) 
Heartbeat CPU  0 instructions:  291000000 cycles:  583066029 heartbeat IPC: 0.45820 cumulative IPC: 0.37899 (Simulation time: 0 hr 17 min 0 sec) 
Heartbeat CPU  0 instructions:  292000000 cycles:  585263322 heartbeat IPC: 0.45511 cumulative IPC: 0.37932 (Simulation time: 0 hr 17 min 4 sec) 
Heartbeat CPU  0 instructions:  293000003 cycles:  587447596 heartbeat IPC: 0.45782 cumulative IPC: 0.37966 (Simulation time: 0 hr 17 min 8 sec) 
Heartbeat CPU  0 instructions:  294000000 cycles:  589602677 heartbeat IPC: 0.46402 cumulative IPC: 0.38002 (Simulation time: 0 hr 17 min 12 sec) 
Heartbeat CPU  0 instructions:  295000001 cycles:  591850009 heartbeat IPC: 0.44497 cumulative IPC: 0.38030 (Simulation time: 0 hr 17 min 17 sec) 
Heartbeat CPU  0 instructions:  296000000 cycles:  593926655 heartbeat IPC: 0.48155 cumulative IPC: 0.38071 (Simulation time: 0 hr 17 min 20 sec) 
Heartbeat CPU  0 instructions:  297000003 cycles:  596022368 heartbeat IPC: 0.47717 cumulative IPC: 0.38110 (Simulation time: 0 hr 17 min 24 sec) 
Heartbeat CPU  0 instructions:  298000000 cycles:  598184136 heartbeat IPC: 0.46258 cumulative IPC: 0.38144 (Simulation time: 0 hr 17 min 28 sec) 
Heartbeat CPU  0 instructions:  299000001 cycles:  600487048 heartbeat IPC: 0.43423 cumulative IPC: 0.38167 (Simulation time: 0 hr 17 min 32 sec) 
Heartbeat CPU  0 instructions:  300000000 cycles:  602479679 heartbeat IPC: 0.50185 cumulative IPC: 0.38213 (Simulation time: 0 hr 17 min 36 sec) 
Heartbeat CPU  0 instructions:  301000002 cycles:  604739242 heartbeat IPC: 0.44256 cumulative IPC: 0.38239 (Simulation time: 0 hr 17 min 40 sec) 
Heartbeat CPU  0 instructions:  302000001 cycles:  606778589 heartbeat IPC: 0.49035 cumulative IPC: 0.38281 (Simulation time: 0 hr 17 min 44 sec) 
Heartbeat CPU  0 instructions:  303000002 cycles:  608983315 heartbeat IPC: 0.45357 cumulative IPC: 0.38310 (Simulation time: 0 hr 17 min 48 sec) 
Heartbeat CPU  0 instructions:  304000000 cycles:  611053362 heartbeat IPC: 0.48308 cumulative IPC: 0.38349 (Simulation time: 0 hr 17 min 51 sec) 
Heartbeat CPU  0 instructions:  305000001 cycles:  613306743 heartbeat IPC: 0.44378 cumulative IPC: 0.38374 (Simulation time: 0 hr 17 min 55 sec) 
Heartbeat CPU  0 instructions:  306000000 cycles:  615471485 heartbeat IPC: 0.46195 cumulative IPC: 0.38406 (Simulation time: 0 hr 17 min 59 sec) 
Heartbeat CPU  0 instructions:  307000000 cycles:  617692946 heartbeat IPC: 0.45015 cumulative IPC: 0.38433 (Simulation time: 0 hr 18 min 2 sec) 
Heartbeat CPU  0 instructions:  308000000 cycles:  621228848 heartbeat IPC: 0.28281 cumulative IPC: 0.38367 (Simulation time: 0 hr 18 min 6 sec) 
Heartbeat CPU  0 instructions:  309000002 cycles:  624480303 heartbeat IPC: 0.30756 cumulative IPC: 0.38322 (Simulation time: 0 hr 18 min 10 sec) 
Heartbeat CPU  0 instructions:  310000000 cycles:  626841626 heartbeat IPC: 0.42349 cumulative IPC: 0.38339 (Simulation time: 0 hr 18 min 14 sec) 
Heartbeat CPU  0 instructions:  311000002 cycles:  629567096 heartbeat IPC: 0.36691 cumulative IPC: 0.38331 (Simulation time: 0 hr 18 min 18 sec) 
Heartbeat CPU  0 instructions:  312000000 cycles:  631780135 heartbeat IPC: 0.45187 cumulative IPC: 0.38358 (Simulation time: 0 hr 18 min 21 sec) 
Heartbeat CPU  0 instructions:  313000003 cycles:  633890031 heartbeat IPC: 0.47396 cumulative IPC: 0.38393 (Simulation time: 0 hr 18 min 25 sec) 
Heartbeat CPU  0 instructions:  314000000 cycles:  635873103 heartbeat IPC: 0.50427 cumulative IPC: 0.38436 (Simulation time: 0 hr 18 min 29 sec) 
Heartbeat CPU  0 instructions:  315000003 cycles:  637930335 heartbeat IPC: 0.48609 cumulative IPC: 0.38473 (Simulation time: 0 hr 18 min 32 sec) 
Heartbeat CPU  0 instructions:  316000000 cycles:  639830670 heartbeat IPC: 0.52622 cumulative IPC: 0.38521 (Simulation time: 0 hr 18 min 36 sec) 
Heartbeat CPU  0 instructions:  317000001 cycles:  641748685 heartbeat IPC: 0.52137 cumulative IPC: 0.38567 (Simulation time: 0 hr 18 min 39 sec) 
Heartbeat CPU  0 instructions:  318000000 cycles:  643707101 heartbeat IPC: 0.51062 cumulative IPC: 0.38611 (Simulation time: 0 hr 18 min 43 sec) 
Heartbeat CPU  0 instructions:  319000000 cycles:  645649636 heartbeat IPC: 0.51479 cumulative IPC: 0.38655 (Simulation time: 0 hr 18 min 47 sec) 
Heartbeat CPU  0 instructions:  320000000 cycles:  647636136 heartbeat IPC: 0.50340 cumulative IPC: 0.38696 (Simulation time: 0 hr 18 min 50 sec) 
Heartbeat CPU  0 instructions:  321000000 cycles:  649468553 heartbeat IPC: 0.54573 cumulative IPC: 0.38747 (Simulation time: 0 hr 18 min 54 sec) 
Heartbeat CPU  0 instructions:  322000003 cycles:  651479708 heartbeat IPC: 0.49723 cumulative IPC: 0.38785 (Simulation time: 0 hr 18 min 57 sec) 
Heartbeat CPU  0 instructions:  323000003 cycles:  653533743 heartbeat IPC: 0.48685 cumulative IPC: 0.38821 (Simulation time: 0 hr 19 min 1 sec) 
Heartbeat CPU  0 instructions:  324000000 cycles:  655576575 heartbeat IPC: 0.48952 cumulative IPC: 0.38857 (Simulation time: 0 hr 19 min 5 sec) 
Heartbeat CPU  0 instructions:  325000003 cycles:  657781889 heartbeat IPC: 0.45345 cumulative IPC: 0.38881 (Simulation time: 0 hr 19 min 8 sec) 
Heartbeat CPU  0 instructions:  326000000 cycles:  659946722 heartbeat IPC: 0.46193 cumulative IPC: 0.38909 (Simulation time: 0 hr 19 min 12 sec) 
Heartbeat CPU  0 instructions:  327000001 cycles:  662113585 heartbeat IPC: 0.46150 cumulative IPC: 0.38935 (Simulation time: 0 hr 19 min 16 sec) 
Heartbeat CPU  0 instructions:  328000000 cycles:  664266055 heartbeat IPC: 0.46458 cumulative IPC: 0.38963 (Simulation time: 0 hr 19 min 19 sec) 
Heartbeat CPU  0 instructions:  329000002 cycles:  666390745 heartbeat IPC: 0.47066 cumulative IPC: 0.38992 (Simulation time: 0 hr 19 min 23 sec) 
Heartbeat CPU  0 instructions:  330000003 cycles:  668548966 heartbeat IPC: 0.46335 cumulative IPC: 0.39019 (Simulation time: 0 hr 19 min 27 sec) 
Heartbeat CPU  0 instructions:  331000003 cycles:  670614472 heartbeat IPC: 0.48414 cumulative IPC: 0.39052 (Simulation time: 0 hr 19 min 30 sec) 
Heartbeat CPU  0 instructions:  332000000 cycles:  672833948 heartbeat IPC: 0.45056 cumulative IPC: 0.39075 (Simulation time: 0 hr 19 min 34 sec) 
Heartbeat CPU  0 instructions:  333000003 cycles:  674931554 heartbeat IPC: 0.47674 cumulative IPC: 0.39105 (Simulation time: 0 hr 19 min 38 sec) 
Heartbeat CPU  0 instructions:  334000000 cycles:  677154287 heartbeat IPC: 0.44990 cumulative IPC: 0.39127 (Simulation time: 0 hr 19 min 41 sec) 
Heartbeat CPU  0 instructions:  335000002 cycles:  679282453 heartbeat IPC: 0.46989 cumulative IPC: 0.39155 (Simulation time: 0 hr 19 min 45 sec) 
Heartbeat CPU  0 instructions:  336000000 cycles:  681373622 heartbeat IPC: 0.47820 cumulative IPC: 0.39185 (Simulation time: 0 hr 19 min 49 sec) 
Heartbeat CPU  0 instructions:  337000000 cycles:  683670761 heartbeat IPC: 0.43532 cumulative IPC: 0.39201 (Simulation time: 0 hr 19 min 53 sec) 
Heartbeat CPU  0 instructions:  338000002 cycles:  685788592 heartbeat IPC: 0.47218 cumulative IPC: 0.39229 (Simulation time: 0 hr 19 min 56 sec) 
Heartbeat CPU  0 instructions:  339000001 cycles:  688058449 heartbeat IPC: 0.44056 cumulative IPC: 0.39247 (Simulation time: 0 hr 20 min 0 sec) 
Heartbeat CPU  0 instructions:  340000000 cycles:  690202676 heartbeat IPC: 0.46637 cumulative IPC: 0.39273 (Simulation time: 0 hr 20 min 4 sec) 
Heartbeat CPU  0 instructions:  341000002 cycles:  692401223 heartbeat IPC: 0.45485 cumulative IPC: 0.39295 (Simulation time: 0 hr 20 min 7 sec) 
Heartbeat CPU  0 instructions:  342000003 cycles:  694594208 heartbeat IPC: 0.45600 cumulative IPC: 0.39318 (Simulation time: 0 hr 20 min 11 sec) 
Heartbeat CPU  0 instructions:  343000000 cycles:  696775529 heartbeat IPC: 0.45844 cumulative IPC: 0.39341 (Simulation time: 0 hr 20 min 15 sec) 
Heartbeat CPU  0 instructions:  344000000 cycles:  698980123 heartbeat IPC: 0.45360 cumulative IPC: 0.39362 (Simulation time: 0 hr 20 min 18 sec) 
Heartbeat CPU  0 instructions:  345000003 cycles:  701121134 heartbeat IPC: 0.46707 cumulative IPC: 0.39388 (Simulation time: 0 hr 20 min 22 sec) 
Heartbeat CPU  0 instructions:  346000000 cycles:  703155176 heartbeat IPC: 0.49163 cumulative IPC: 0.39419 (Simulation time: 0 hr 20 min 26 sec) 
Heartbeat CPU  0 instructions:  347000003 cycles:  705424201 heartbeat IPC: 0.44072 cumulative IPC: 0.39436 (Simulation time: 0 hr 20 min 30 sec) 
Heartbeat CPU  0 instructions:  348000000 cycles:  707445653 heartbeat IPC: 0.49469 cumulative IPC: 0.39469 (Simulation time: 0 hr 20 min 33 sec) 
Heartbeat CPU  0 instructions:  349000000 cycles:  709597808 heartbeat IPC: 0.46465 cumulative IPC: 0.39492 (Simulation time: 0 hr 20 min 37 sec) 
Heartbeat CPU  0 instructions:  350000001 cycles:  711791042 heartbeat IPC: 0.45595 cumulative IPC: 0.39514 (Simulation time: 0 hr 20 min 41 sec) 
Heartbeat CPU  0 instructions:  351000001 cycles:  714068878 heartbeat IPC: 0.43901 cumulative IPC: 0.39529 (Simulation time: 0 hr 20 min 44 sec) 
Heartbeat CPU  0 instructions:  352000000 cycles:  716168741 heartbeat IPC: 0.47622 cumulative IPC: 0.39556 (Simulation time: 0 hr 20 min 48 sec) 
Heartbeat CPU  0 instructions:  353000003 cycles:  718281609 heartbeat IPC: 0.47329 cumulative IPC: 0.39582 (Simulation time: 0 hr 20 min 52 sec) 
Heartbeat CPU  0 instructions:  354000000 cycles:  720419554 heartbeat IPC: 0.46774 cumulative IPC: 0.39606 (Simulation time: 0 hr 20 min 55 sec) 
Heartbeat CPU  0 instructions:  355000000 cycles:  722577483 heartbeat IPC: 0.46341 cumulative IPC: 0.39628 (Simulation time: 0 hr 20 min 59 sec) 
Heartbeat CPU  0 instructions:  356000000 cycles:  724717907 heartbeat IPC: 0.46720 cumulative IPC: 0.39652 (Simulation time: 0 hr 21 min 3 sec) 
Heartbeat CPU  0 instructions:  357000002 cycles:  726824243 heartbeat IPC: 0.47476 cumulative IPC: 0.39677 (Simulation time: 0 hr 21 min 6 sec) 
Heartbeat CPU  0 instructions:  358000003 cycles:  728951436 heartbeat IPC: 0.47010 cumulative IPC: 0.39701 (Simulation time: 0 hr 21 min 10 sec) 
Heartbeat CPU  0 instructions:  359000000 cycles:  731193396 heartbeat IPC: 0.44604 cumulative IPC: 0.39718 (Simulation time: 0 hr 21 min 14 sec) 
Heartbeat CPU  0 instructions:  360000000 cycles:  733270590 heartbeat IPC: 0.48142 cumulative IPC: 0.39745 (Simulation time: 0 hr 21 min 18 sec) 
Heartbeat CPU  0 instructions:  361000002 cycles:  735416481 heartbeat IPC: 0.46601 cumulative IPC: 0.39767 (Simulation time: 0 hr 21 min 21 sec) 
Heartbeat CPU  0 instructions:  362000003 cycles:  737707537 heartbeat IPC: 0.43648 cumulative IPC: 0.39781 (Simulation time: 0 hr 21 min 25 sec) 
Heartbeat CPU  0 instructions:  363000003 cycles:  739768437 heartbeat IPC: 0.48522 cumulative IPC: 0.39808 (Simulation time: 0 hr 21 min 29 sec) 
Heartbeat CPU  0 instructions:  364000000 cycles:  741944778 heartbeat IPC: 0.45949 cumulative IPC: 0.39828 (Simulation time: 0 hr 21 min 33 sec) 
Heartbeat CPU  0 instructions:  365000003 cycles:  744005616 heartbeat IPC: 0.48524 cumulative IPC: 0.39855 (Simulation time: 0 hr 21 min 36 sec) 
Heartbeat CPU  0 instructions:  366000000 cycles:  746172329 heartbeat IPC: 0.46153 cumulative IPC: 0.39876 (Simulation time: 0 hr 21 min 40 sec) 
Heartbeat CPU  0 instructions:  367000001 cycles:  748355307 heartbeat IPC: 0.45809 cumulative IPC: 0.39895 (Simulation time: 0 hr 21 min 44 sec) 
Heartbeat CPU  0 instructions:  368000000 cycles:  750592906 heartbeat IPC: 0.44691 cumulative IPC: 0.39911 (Simulation time: 0 hr 21 min 47 sec) 
Heartbeat CPU  0 instructions:  369000003 cycles:  752711010 heartbeat IPC: 0.47212 cumulative IPC: 0.39934 (Simulation time: 0 hr 21 min 51 sec) 
Heartbeat CPU  0 instructions:  370000000 cycles:  754823279 heartbeat IPC: 0.47342 cumulative IPC: 0.39957 (Simulation time: 0 hr 21 min 55 sec) 
Heartbeat CPU  0 instructions:  371000000 cycles:  757089925 heartbeat IPC: 0.44118 cumulative IPC: 0.39971 (Simulation time: 0 hr 21 min 59 sec) 
Heartbeat CPU  0 instructions:  372000000 cycles:  759228725 heartbeat IPC: 0.46755 cumulative IPC: 0.39992 (Simulation time: 0 hr 22 min 2 sec) 
Heartbeat CPU  0 instructions:  373000000 cycles:  761385169 heartbeat IPC: 0.46373 cumulative IPC: 0.40012 (Simulation time: 0 hr 22 min 6 sec) 
Heartbeat CPU  0 instructions:  374000003 cycles:  763407319 heartbeat IPC: 0.49452 cumulative IPC: 0.40040 (Simulation time: 0 hr 22 min 10 sec) 
Heartbeat CPU  0 instructions:  375000002 cycles:  765601525 heartbeat IPC: 0.45575 cumulative IPC: 0.40058 (Simulation time: 0 hr 22 min 14 sec) 
Heartbeat CPU  0 instructions:  376000000 cycles:  767882688 heartbeat IPC: 0.43837 cumulative IPC: 0.40071 (Simulation time: 0 hr 22 min 18 sec) 
Heartbeat CPU  0 instructions:  377000003 cycles:  769948583 heartbeat IPC: 0.48405 cumulative IPC: 0.40095 (Simulation time: 0 hr 22 min 22 sec) 
Heartbeat CPU  0 instructions:  378000000 cycles:  772115257 heartbeat IPC: 0.46154 cumulative IPC: 0.40114 (Simulation time: 0 hr 22 min 25 sec) 
Heartbeat CPU  0 instructions:  379000001 cycles:  774163543 heartbeat IPC: 0.48821 cumulative IPC: 0.40140 (Simulation time: 0 hr 22 min 29 sec) 
Heartbeat CPU  0 instructions:  380000000 cycles:  776336841 heartbeat IPC: 0.46013 cumulative IPC: 0.40158 (Simulation time: 0 hr 22 min 33 sec) 
Heartbeat CPU  0 instructions:  381000002 cycles:  778508715 heartbeat IPC: 0.46043 cumulative IPC: 0.40177 (Simulation time: 0 hr 22 min 37 sec) 
Heartbeat CPU  0 instructions:  382000003 cycles:  780601808 heartbeat IPC: 0.47776 cumulative IPC: 0.40199 (Simulation time: 0 hr 22 min 41 sec) 
Heartbeat CPU  0 instructions:  383000000 cycles:  782812735 heartbeat IPC: 0.45230 cumulative IPC: 0.40215 (Simulation time: 0 hr 22 min 45 sec) 
Heartbeat CPU  0 instructions:  384000000 cycles:  784950865 heartbeat IPC: 0.46770 cumulative IPC: 0.40235 (Simulation time: 0 hr 22 min 50 sec) 
Heartbeat CPU  0 instructions:  385000003 cycles:  786984647 heartbeat IPC: 0.49170 cumulative IPC: 0.40261 (Simulation time: 0 hr 22 min 54 sec) 
Heartbeat CPU  0 instructions:  386000000 cycles:  789239461 heartbeat IPC: 0.44349 cumulative IPC: 0.40274 (Simulation time: 0 hr 22 min 59 sec) 
Heartbeat CPU  0 instructions:  387000002 cycles:  791409404 heartbeat IPC: 0.46084 cumulative IPC: 0.40291 (Simulation time: 0 hr 23 min 3 sec) 
Heartbeat CPU  0 instructions:  388000000 cycles:  793581076 heartbeat IPC: 0.46047 cumulative IPC: 0.40309 (Simulation time: 0 hr 23 min 7 sec) 
Heartbeat CPU  0 instructions:  389000000 cycles:  795710111 heartbeat IPC: 0.46970 cumulative IPC: 0.40329 (Simulation time: 0 hr 23 min 11 sec) 
Heartbeat CPU  0 instructions:  390000000 cycles:  797859256 heartbeat IPC: 0.46530 cumulative IPC: 0.40347 (Simulation time: 0 hr 23 min 15 sec) 
Heartbeat CPU  0 instructions:  391000003 cycles:  800100498 heartbeat IPC: 0.44618 cumulative IPC: 0.40360 (Simulation time: 0 hr 23 min 19 sec) 
Heartbeat CPU  0 instructions:  392000000 cycles:  802269867 heartbeat IPC: 0.46096 cumulative IPC: 0.40378 (Simulation time: 0 hr 23 min 24 sec) 
Heartbeat CPU  0 instructions:  393000000 cycles:  804539080 heartbeat IPC: 0.44068 cumulative IPC: 0.40389 (Simulation time: 0 hr 23 min 28 sec) 
Heartbeat CPU  0 instructions:  394000000 cycles:  806789507 heartbeat IPC: 0.44436 cumulative IPC: 0.40402 (Simulation time: 0 hr 23 min 32 sec) 
Heartbeat CPU  0 instructions:  395000000 cycles:  808974529 heartbeat IPC: 0.45766 cumulative IPC: 0.40418 (Simulation time: 0 hr 23 min 35 sec) 
Heartbeat CPU  0 instructions:  396000000 cycles:  811119083 heartbeat IPC: 0.46630 cumulative IPC: 0.40436 (Simulation time: 0 hr 23 min 39 sec) 
Heartbeat CPU  0 instructions:  397000000 cycles:  813244072 heartbeat IPC: 0.47059 cumulative IPC: 0.40455 (Simulation time: 0 hr 23 min 43 sec) 
Heartbeat CPU  0 instructions:  398000001 cycles:  815367885 heartbeat IPC: 0.47085 cumulative IPC: 0.40474 (Simulation time: 0 hr 23 min 47 sec) 
Heartbeat CPU  0 instructions:  399000002 cycles:  817517999 heartbeat IPC: 0.46509 cumulative IPC: 0.40492 (Simulation time: 0 hr 23 min 52 sec) 
Heartbeat CPU  0 instructions:  400000000 cycles:  819720847 heartbeat IPC: 0.45396 cumulative IPC: 0.40506 (Simulation time: 0 hr 23 min 56 sec) 
Heartbeat CPU  0 instructions:  401000002 cycles:  821917082 heartbeat IPC: 0.45533 cumulative IPC: 0.40521 (Simulation time: 0 hr 24 min 0 sec) 
Heartbeat CPU  0 instructions:  402000003 cycles:  824098197 heartbeat IPC: 0.45848 cumulative IPC: 0.40537 (Simulation time: 0 hr 24 min 4 sec) 
Heartbeat CPU  0 instructions:  403000000 cycles:  826247310 heartbeat IPC: 0.46531 cumulative IPC: 0.40554 (Simulation time: 0 hr 24 min 8 sec) 
Heartbeat CPU  0 instructions:  404000000 cycles:  828417890 heartbeat IPC: 0.46071 cumulative IPC: 0.40570 (Simulation time: 0 hr 24 min 12 sec) 
Heartbeat CPU  0 instructions:  405000003 cycles:  830504631 heartbeat IPC: 0.47922 cumulative IPC: 0.40591 (Simulation time: 0 hr 24 min 16 sec) 
Heartbeat CPU  0 instructions:  406000000 cycles:  832682010 heartbeat IPC: 0.45927 cumulative IPC: 0.40606 (Simulation time: 0 hr 24 min 20 sec) 
Heartbeat CPU  0 instructions:  407000001 cycles:  834845043 heartbeat IPC: 0.46231 cumulative IPC: 0.40622 (Simulation time: 0 hr 24 min 23 sec) 
Heartbeat CPU  0 instructions:  408000000 cycles:  836959276 heartbeat IPC: 0.47298 cumulative IPC: 0.40641 (Simulation time: 0 hr 24 min 27 sec) 
Heartbeat CPU  0 instructions:  409000002 cycles:  839069987 heartbeat IPC: 0.47377 cumulative IPC: 0.40659 (Simulation time: 0 hr 24 min 31 sec) 
Heartbeat CPU  0 instructions:  410000000 cycles:  841218590 heartbeat IPC: 0.46542 cumulative IPC: 0.40676 (Simulation time: 0 hr 24 min 35 sec) 
Heartbeat CPU  0 instructions:  411000001 cycles:  843341070 heartbeat IPC: 0.47115 cumulative IPC: 0.40694 (Simulation time: 0 hr 24 min 39 sec) 
Heartbeat CPU  0 instructions:  412000000 cycles:  845500253 heartbeat IPC: 0.46314 cumulative IPC: 0.40710 (Simulation time: 0 hr 24 min 43 sec) 
Heartbeat CPU  0 instructions:  413000002 cycles:  847677956 heartbeat IPC: 0.45920 cumulative IPC: 0.40724 (Simulation time: 0 hr 24 min 47 sec) 
Heartbeat CPU  0 instructions:  414000001 cycles:  849970735 heartbeat IPC: 0.43615 cumulative IPC: 0.40733 (Simulation time: 0 hr 24 min 51 sec) 
Heartbeat CPU  0 instructions:  415000002 cycles:  852059850 heartbeat IPC: 0.47867 cumulative IPC: 0.40752 (Simulation time: 0 hr 24 min 56 sec) 
Heartbeat CPU  0 instructions:  416000000 cycles:  854227264 heartbeat IPC: 0.46138 cumulative IPC: 0.40767 (Simulation time: 0 hr 25 min 0 sec) 
Heartbeat CPU  0 instructions:  417000003 cycles:  856362566 heartbeat IPC: 0.46832 cumulative IPC: 0.40784 (Simulation time: 0 hr 25 min 4 sec) 
Heartbeat CPU  0 instructions:  418000000 cycles:  858569628 heartbeat IPC: 0.45309 cumulative IPC: 0.40797 (Simulation time: 0 hr 25 min 9 sec) 
Heartbeat CPU  0 instructions:  419000001 cycles:  860817134 heartbeat IPC: 0.44494 cumulative IPC: 0.40807 (Simulation time: 0 hr 25 min 14 sec) 
Heartbeat CPU  0 instructions:  420000000 cycles:  863072274 heartbeat IPC: 0.44343 cumulative IPC: 0.40818 (Simulation time: 0 hr 25 min 18 sec) 
Heartbeat CPU  0 instructions:  421000000 cycles:  865188661 heartbeat IPC: 0.47250 cumulative IPC: 0.40835 (Simulation time: 0 hr 25 min 22 sec) 
Heartbeat CPU  0 instructions:  422000001 cycles:  867227420 heartbeat IPC: 0.49049 cumulative IPC: 0.40856 (Simulation time: 0 hr 25 min 27 sec) 
Heartbeat CPU  0 instructions:  423000001 cycles:  869488565 heartbeat IPC: 0.44225 cumulative IPC: 0.40866 (Simulation time: 0 hr 25 min 31 sec) 
Heartbeat CPU  0 instructions:  424000000 cycles:  871692452 heartbeat IPC: 0.45374 cumulative IPC: 0.40878 (Simulation time: 0 hr 25 min 34 sec) 
Heartbeat CPU  0 instructions:  425000001 cycles:  873862005 heartbeat IPC: 0.46092 cumulative IPC: 0.40893 (Simulation time: 0 hr 25 min 38 sec) 
Heartbeat CPU  0 instructions:  426000002 cycles:  876009700 heartbeat IPC: 0.46562 cumulative IPC: 0.40908 (Simulation time: 0 hr 25 min 42 sec) 
Heartbeat CPU  0 instructions:  427000000 cycles:  878077416 heartbeat IPC: 0.48362 cumulative IPC: 0.40927 (Simulation time: 0 hr 25 min 46 sec) 
Heartbeat CPU  0 instructions:  428000000 cycles:  880263243 heartbeat IPC: 0.45749 cumulative IPC: 0.40940 (Simulation time: 0 hr 25 min 50 sec) 
Heartbeat CPU  0 instructions:  429000000 cycles:  882465614 heartbeat IPC: 0.45406 cumulative IPC: 0.40953 (Simulation time: 0 hr 25 min 54 sec) 
Heartbeat CPU  0 instructions:  430000000 cycles:  884545979 heartbeat IPC: 0.48068 cumulative IPC: 0.40971 (Simulation time: 0 hr 25 min 58 sec) 
Heartbeat CPU  0 instructions:  431000002 cycles:  887075269 heartbeat IPC: 0.39537 cumulative IPC: 0.40966 (Simulation time: 0 hr 26 min 2 sec) 
Heartbeat CPU  0 instructions:  432000000 cycles:  890169091 heartbeat IPC: 0.32322 cumulative IPC: 0.40933 (Simulation time: 0 hr 26 min 7 sec) 
Heartbeat CPU  0 instructions:  433000001 cycles:  893128846 heartbeat IPC: 0.33787 cumulative IPC: 0.40908 (Simulation time: 0 hr 26 min 11 sec) 
Heartbeat CPU  0 instructions:  434000000 cycles:  896003728 heartbeat IPC: 0.34784 cumulative IPC: 0.40886 (Simulation time: 0 hr 26 min 16 sec) 
Heartbeat CPU  0 instructions:  435000003 cycles:  898737935 heartbeat IPC: 0.36574 cumulative IPC: 0.40872 (Simulation time: 0 hr 26 min 20 sec) 
Heartbeat CPU  0 instructions:  436000000 cycles:  900844353 heartbeat IPC: 0.47474 cumulative IPC: 0.40888 (Simulation time: 0 hr 26 min 24 sec) 
Heartbeat CPU  0 instructions:  437000002 cycles:  902827015 heartbeat IPC: 0.50437 cumulative IPC: 0.40911 (Simulation time: 0 hr 26 min 28 sec) 
Heartbeat CPU  0 instructions:  438000001 cycles:  904807682 heartbeat IPC: 0.50488 cumulative IPC: 0.40934 (Simulation time: 0 hr 26 min 32 sec) 
Heartbeat CPU  0 instructions:  439000000 cycles:  906754193 heartbeat IPC: 0.51374 cumulative IPC: 0.40959 (Simulation time: 0 hr 26 min 35 sec) 
Heartbeat CPU  0 instructions:  440000000 cycles:  908807598 heartbeat IPC: 0.48700 cumulative IPC: 0.40978 (Simulation time: 0 hr 26 min 39 sec) 
Heartbeat CPU  0 instructions:  441000001 cycles:  910715917 heartbeat IPC: 0.52402 cumulative IPC: 0.41004 (Simulation time: 0 hr 26 min 43 sec) 
Heartbeat CPU  0 instructions:  442000000 cycles:  912621216 heartbeat IPC: 0.52485 cumulative IPC: 0.41031 (Simulation time: 0 hr 26 min 47 sec) 
Heartbeat CPU  0 instructions:  443000000 cycles:  914609509 heartbeat IPC: 0.50294 cumulative IPC: 0.41053 (Simulation time: 0 hr 26 min 50 sec) 
Heartbeat CPU  0 instructions:  444000000 cycles:  916742591 heartbeat IPC: 0.46881 cumulative IPC: 0.41068 (Simulation time: 0 hr 26 min 54 sec) 
Heartbeat CPU  0 instructions:  445000002 cycles:  918972971 heartbeat IPC: 0.44835 cumulative IPC: 0.41078 (Simulation time: 0 hr 26 min 58 sec) 
Heartbeat CPU  0 instructions:  446000001 cycles:  921263972 heartbeat IPC: 0.43649 cumulative IPC: 0.41085 (Simulation time: 0 hr 27 min 2 sec) 
Heartbeat CPU  0 instructions:  447000003 cycles:  923626940 heartbeat IPC: 0.42320 cumulative IPC: 0.41088 (Simulation time: 0 hr 27 min 6 sec) 
Heartbeat CPU  0 instructions:  448000000 cycles:  926028695 heartbeat IPC: 0.41636 cumulative IPC: 0.41090 (Simulation time: 0 hr 27 min 10 sec) 
Heartbeat CPU  0 instructions:  449000000 cycles:  928422073 heartbeat IPC: 0.41782 cumulative IPC: 0.41091 (Simulation time: 0 hr 27 min 14 sec) 
Heartbeat CPU  0 instructions:  450000003 cycles:  930706203 heartbeat IPC: 0.43780 cumulative IPC: 0.41099 (Simulation time: 0 hr 27 min 18 sec) 
Heartbeat CPU  0 instructions:  451000000 cycles:  933000471 heartbeat IPC: 0.43587 cumulative IPC: 0.41105 (Simulation time: 0 hr 27 min 22 sec) 
Heartbeat CPU  0 instructions:  452000000 cycles:  935370241 heartbeat IPC: 0.42198 cumulative IPC: 0.41108 (Simulation time: 0 hr 27 min 26 sec) 
Heartbeat CPU  0 instructions:  453000001 cycles:  937818102 heartbeat IPC: 0.40852 cumulative IPC: 0.41108 (Simulation time: 0 hr 27 min 30 sec) 
Heartbeat CPU  0 instructions:  454000000 cycles:  940157633 heartbeat IPC: 0.42744 cumulative IPC: 0.41112 (Simulation time: 0 hr 27 min 34 sec) 
Heartbeat CPU  0 instructions:  455000000 cycles:  942483119 heartbeat IPC: 0.43002 cumulative IPC: 0.41117 (Simulation time: 0 hr 27 min 38 sec) 
Heartbeat CPU  0 instructions:  456000000 cycles:  944932327 heartbeat IPC: 0.40830 cumulative IPC: 0.41116 (Simulation time: 0 hr 27 min 43 sec) 
Heartbeat CPU  0 instructions:  457000002 cycles:  947323466 heartbeat IPC: 0.41821 cumulative IPC: 0.41118 (Simulation time: 0 hr 27 min 47 sec) 
Heartbeat CPU  0 instructions:  458000003 cycles:  949631733 heartbeat IPC: 0.43323 cumulative IPC: 0.41124 (Simulation time: 0 hr 27 min 52 sec) 
Heartbeat CPU  0 instructions:  459000001 cycles:  952004825 heartbeat IPC: 0.42139 cumulative IPC: 0.41127 (Simulation time: 0 hr 27 min 57 sec) 
Heartbeat CPU  0 instructions:  460000000 cycles:  954360891 heartbeat IPC: 0.42444 cumulative IPC: 0.41130 (Simulation time: 0 hr 28 min 2 sec) 
Heartbeat CPU  0 instructions:  461000002 cycles:  956833764 heartbeat IPC: 0.40439 cumulative IPC: 0.41129 (Simulation time: 0 hr 28 min 6 sec) 
Heartbeat CPU  0 instructions:  462000003 cycles:  959176093 heartbeat IPC: 0.42693 cumulative IPC: 0.41133 (Simulation time: 0 hr 28 min 10 sec) 
Heartbeat CPU  0 instructions:  463000002 cycles:  961586336 heartbeat IPC: 0.41490 cumulative IPC: 0.41134 (Simulation time: 0 hr 28 min 15 sec) 
Heartbeat CPU  0 instructions:  464000000 cycles:  963884696 heartbeat IPC: 0.43509 cumulative IPC: 0.41140 (Simulation time: 0 hr 28 min 19 sec) 
Heartbeat CPU  0 instructions:  465000001 cycles:  966251792 heartbeat IPC: 0.42246 cumulative IPC: 0.41143 (Simulation time: 0 hr 28 min 24 sec) 
Heartbeat CPU  0 instructions:  466000000 cycles:  968654216 heartbeat IPC: 0.41625 cumulative IPC: 0.41144 (Simulation time: 0 hr 28 min 29 sec) 
Heartbeat CPU  0 instructions:  467000001 cycles:  971052295 heartbeat IPC: 0.41700 cumulative IPC: 0.41146 (Simulation time: 0 hr 28 min 33 sec) 
Heartbeat CPU  0 instructions:  468000000 cycles:  973418171 heartbeat IPC: 0.42268 cumulative IPC: 0.41149 (Simulation time: 0 hr 28 min 38 sec) 
Heartbeat CPU  0 instructions:  469000002 cycles:  975809753 heartbeat IPC: 0.41813 cumulative IPC: 0.41150 (Simulation time: 0 hr 28 min 42 sec) 
Heartbeat CPU  0 instructions:  470000003 cycles:  978158325 heartbeat IPC: 0.42579 cumulative IPC: 0.41154 (Simulation time: 0 hr 28 min 46 sec) 
Heartbeat CPU  0 instructions:  471000002 cycles:  980462600 heartbeat IPC: 0.43398 cumulative IPC: 0.41160 (Simulation time: 0 hr 28 min 51 sec) 
Heartbeat CPU  0 instructions:  472000000 cycles:  982832185 heartbeat IPC: 0.42201 cumulative IPC: 0.41163 (Simulation time: 0 hr 28 min 55 sec) 
Heartbeat CPU  0 instructions:  473000001 cycles:  985246135 heartbeat IPC: 0.41426 cumulative IPC: 0.41163 (Simulation time: 0 hr 28 min 59 sec) 
Heartbeat CPU  0 instructions:  474000000 cycles:  987573819 heartbeat IPC: 0.42961 cumulative IPC: 0.41168 (Simulation time: 0 hr 29 min 4 sec) 
Heartbeat CPU  0 instructions:  475000001 cycles:  989905047 heartbeat IPC: 0.42896 cumulative IPC: 0.41172 (Simulation time: 0 hr 29 min 8 sec) 
Heartbeat CPU  0 instructions:  476000000 cycles:  992332544 heartbeat IPC: 0.41195 cumulative IPC: 0.41172 (Simulation time: 0 hr 29 min 14 sec) 
Heartbeat CPU  0 instructions:  477000003 cycles:  994689824 heartbeat IPC: 0.42422 cumulative IPC: 0.41176 (Simulation time: 0 hr 29 min 18 sec) 
Heartbeat CPU  0 instructions:  478000002 cycles:  997099417 heartbeat IPC: 0.41501 cumulative IPC: 0.41176 (Simulation time: 0 hr 29 min 22 sec) 
Heartbeat CPU  0 instructions:  479000003 cycles:  999534754 heartbeat IPC: 0.41062 cumulative IPC: 0.41176 (Simulation time: 0 hr 29 min 26 sec) 
Heartbeat CPU  0 instructions:  480000000 cycles: 1001912526 heartbeat IPC: 0.42056 cumulative IPC: 0.41178 (Simulation time: 0 hr 29 min 30 sec) 
Heartbeat CPU  0 instructions:  481000000 cycles: 1004232780 heartbeat IPC: 0.43099 cumulative IPC: 0.41183 (Simulation time: 0 hr 29 min 34 sec) 
Heartbeat CPU  0 instructions:  482000003 cycles: 1006620610 heartbeat IPC: 0.41879 cumulative IPC: 0.41185 (Simulation time: 0 hr 29 min 39 sec) 
Heartbeat CPU  0 instructions:  483000000 cycles: 1008998070 heartbeat IPC: 0.42062 cumulative IPC: 0.41187 (Simulation time: 0 hr 29 min 43 sec) 
Heartbeat CPU  0 instructions:  484000000 cycles: 1011315770 heartbeat IPC: 0.43146 cumulative IPC: 0.41192 (Simulation time: 0 hr 29 min 48 sec) 
Heartbeat CPU  0 instructions:  485000001 cycles: 1013752988 heartbeat IPC: 0.41030 cumulative IPC: 0.41192 (Simulation time: 0 hr 29 min 53 sec) 
Heartbeat CPU  0 instructions:  486000000 cycles: 1016147974 heartbeat IPC: 0.41754 cumulative IPC: 0.41193 (Simulation time: 0 hr 29 min 58 sec) 
Heartbeat CPU  0 instructions:  487000001 cycles: 1018517272 heartbeat IPC: 0.42207 cumulative IPC: 0.41196 (Simulation time: 0 hr 30 min 2 sec) 
Heartbeat CPU  0 instructions:  488000000 cycles: 1020832185 heartbeat IPC: 0.43198 cumulative IPC: 0.41201 (Simulation time: 0 hr 30 min 7 sec) 
Heartbeat CPU  0 instructions:  489000002 cycles: 1023236967 heartbeat IPC: 0.41584 cumulative IPC: 0.41202 (Simulation time: 0 hr 30 min 12 sec) 
Heartbeat CPU  0 instructions:  490000001 cycles: 1025624098 heartbeat IPC: 0.41891 cumulative IPC: 0.41203 (Simulation time: 0 hr 30 min 16 sec) 
Heartbeat CPU  0 instructions:  491000001 cycles: 1027966403 heartbeat IPC: 0.42693 cumulative IPC: 0.41207 (Simulation time: 0 hr 30 min 22 sec) 
Heartbeat CPU  0 instructions:  492000000 cycles: 1030357628 heartbeat IPC: 0.41820 cumulative IPC: 0.41208 (Simulation time: 0 hr 30 min 26 sec) 
Heartbeat CPU  0 instructions:  493000003 cycles: 1032738884 heartbeat IPC: 0.41995 cumulative IPC: 0.41210 (Simulation time: 0 hr 30 min 30 sec) 
Heartbeat CPU  0 instructions:  494000001 cycles: 1035122660 heartbeat IPC: 0.41950 cumulative IPC: 0.41212 (Simulation time: 0 hr 30 min 35 sec) 
Heartbeat CPU  0 instructions:  495000000 cycles: 1037535214 heartbeat IPC: 0.41450 cumulative IPC: 0.41213 (Simulation time: 0 hr 30 min 39 sec) 
Heartbeat CPU  0 instructions:  496000000 cycles: 1039887353 heartbeat IPC: 0.42514 cumulative IPC: 0.41216 (Simulation time: 0 hr 30 min 43 sec) 
Heartbeat CPU  0 instructions:  497000002 cycles: 1042297636 heartbeat IPC: 0.41489 cumulative IPC: 0.41217 (Simulation time: 0 hr 30 min 48 sec) 
Heartbeat CPU  0 instructions:  498000000 cycles: 1044564030 heartbeat IPC: 0.44123 cumulative IPC: 0.41224 (Simulation time: 0 hr 30 min 51 sec) 
Heartbeat CPU  0 instructions:  499000001 cycles: 1047025998 heartbeat IPC: 0.40618 cumulative IPC: 0.41222 (Simulation time: 0 hr 30 min 56 sec) 
Heartbeat CPU  0 instructions:  500000000 cycles: 1049356356 heartbeat IPC: 0.42912 cumulative IPC: 0.41226 (Simulation time: 0 hr 31 min 0 sec) 
Heartbeat CPU  0 instructions:  501000000 cycles: 1051789447 heartbeat IPC: 0.41100 cumulative IPC: 0.41226 (Simulation time: 0 hr 31 min 4 sec) 
Heartbeat CPU  0 instructions:  502000003 cycles: 1054070632 heartbeat IPC: 0.43837 cumulative IPC: 0.41232 (Simulation time: 0 hr 31 min 8 sec) 
Heartbeat CPU  0 instructions:  503000003 cycles: 1056494569 heartbeat IPC: 0.41255 cumulative IPC: 0.41232 (Simulation time: 0 hr 31 min 12 sec) 
Heartbeat CPU  0 instructions:  504000000 cycles: 1058803600 heartbeat IPC: 0.43308 cumulative IPC: 0.41237 (Simulation time: 0 hr 31 min 16 sec) 
Heartbeat CPU  0 instructions:  505000001 cycles: 1061330326 heartbeat IPC: 0.39577 cumulative IPC: 0.41233 (Simulation time: 0 hr 31 min 21 sec) 
Heartbeat CPU  0 instructions:  506000001 cycles: 1063645860 heartbeat IPC: 0.43187 cumulative IPC: 0.41237 (Simulation time: 0 hr 31 min 25 sec) 
Heartbeat CPU  0 instructions:  507000003 cycles: 1065943161 heartbeat IPC: 0.43529 cumulative IPC: 0.41243 (Simulation time: 0 hr 31 min 29 sec) 
Heartbeat CPU  0 instructions:  508000000 cycles: 1068290716 heartbeat IPC: 0.42597 cumulative IPC: 0.41246 (Simulation time: 0 hr 31 min 33 sec) 
Heartbeat CPU  0 instructions:  509000000 cycles: 1070798086 heartbeat IPC: 0.39882 cumulative IPC: 0.41242 (Simulation time: 0 hr 31 min 37 sec) 
Heartbeat CPU  0 instructions:  510000002 cycles: 1073144870 heartbeat IPC: 0.42612 cumulative IPC: 0.41246 (Simulation time: 0 hr 31 min 42 sec) 
Heartbeat CPU  0 instructions:  511000003 cycles: 1075538872 heartbeat IPC: 0.41771 cumulative IPC: 0.41247 (Simulation time: 0 hr 31 min 46 sec) 
Heartbeat CPU  0 instructions:  512000000 cycles: 1077903353 heartbeat IPC: 0.42292 cumulative IPC: 0.41249 (Simulation time: 0 hr 31 min 50 sec) 
[...]
scooby_state_447803|32|1 0,1,0,0,0,0,0,0,0,0,0,0,0,0,0,1,
scooby_state_4473cf|35|-28 1,0,0,0,0,0,0,0,0,0,0,0,0,0,0,1,
scooby_state_447747|9|-47 1,0,0,0,0,0,0,0,0,0,0,0,0,0,0,1,
scooby_state_4473cf|11|-46 1,0,0,0,0,0,0,0,0,0,0,0,0,0,0,1,
scooby_state_446626|50|30 1,0,0,0,0,0,0,0,0,0,0,0,0,0,0,1,
scooby_state_447771|33|18 1,0,0,0,0,0,0,0,0,0,0,0,0,0,0,1,
scooby_state_44a12c|44|6 1,0,0,0,0,0,0,0,0,0,0,0,0,0,0,1,
scooby_state_4498d4|33|4 1,0,0,0,0,0,0,0,0,0,0,0,0,0,0,1,
scooby_state_448c4a|4|-27 1,0,0,0,0,0,0,0,0,0,0,0,0,0,0,1,
scooby_state_44660f|21|0 1,0,0,0,0,0,0,0,0,0,0,0,0,0,0,1,
scooby_state_44a22d|59|26 1,0,0,0,0,0,0,0,0,0,0,0,0,0,0,1,
scooby_state_447771|22|7 1,0,0,0,0,0,0,0,0,0,0,0,0,0,0,1,
scooby_state_447da2|5|-29 1,0,0,0,0,0,0,0,0,0,0,0,0,0,0,1,
scooby_state_447c87|50|1 1,0,0,0,0,0,0,0,0,0,0,0,0,0,0,1,
scooby_state_4475eb|34|-29 1,0,0,0,0,0,0,0,0,0,0,0,0,0,0,1,
scooby_state_446626|58|30 1,0,0,0,0,0,0,0,0,0,0,0,0,0,0,1,
scooby_state_448e95|48|-11 1,0,0,0,0,0,0,0,0,0,0,0,0,0,0,1,
scooby_state_447ab9|42|2 1,0,0,0,0,0,0,0,0,0,0,0,0,0,0,1,
scooby_state_449401|16|1 1,0,0,0,0,0,0,0,0,0,0,0,0,0,0,1,
scooby_state_44a0cc|25|-5 1,0,0,0,0,0,0,0,0,0,0,0,0,0,0,1,
scooby_state_44a23c|8|-38 1,0,0,0,0,0,0,0,0,0,0,0,0,0,0,1,
scooby_state_44996a|9|-9 1,0,0,0,0,0,0,0,0,0,0,0,0,0,0,1,
scooby_state_446d6d|13|-35 0,0,0,0,0,1,0,0,0,0,0,0,0,0,0,1,
scooby_state_44660f|60|0 1,0,0,0,0,0,0,0,0,0,0,0,0,0,0,1,
scooby_state_44996a|14|5 1,0,0,0,0,0,0,0,0,0,0,0,0,0,0,1,
scooby_state_44660f|60|-1 1,0,0,0,0,0,0,0,0,0,0,0,0,0,0,1,
scooby_state_44677e|48|0 1,0,0,0,0,0,0,0,0,0,0,0,0,0,0,1,
scooby_state_447f3c|10|1 1,0,0,0,0,0,0,0,0,0,0,0,0,0,0,1,
scooby_state_446e44|7|0 1,0,0,0,0,0,0,0,0,0,0,0,0,0,0,1,
scooby_state_44677e|31|-2 1,0,0,0,0,0,0,0,0,0,0,0,0,0,0,1,
scooby_state_446626|35|30 1,0,0,0,0,0,0,0,0,0,0,0,0,0,0,1,
scooby_state_446791|59|57 1,0,0,0,0,0,0,0,0,0,0,0,0,0,0,1,
scooby_state_4465e9|60|58 1,0,0,0,0,0,0,0,0,0,0,0,0,0,0,1,
scooby_state_44a23c|18|7 1,0,0,0,0,0,0,0,0,0,0,0,0,0,0,1,
scooby_state_44a203|47|31 1,0,0,0,0,0,0,0,0,0,0,0,0,0,0,1,
scooby_state_446896|51|36 1,0,0,0,0,0,0,0,0,0,0,0,0,0,0,1,
scooby_state_44996a|23|22 1,0,0,0,0,0,0,0,0,0,0,0,0,0,0,1,
scooby_state_447202|8|1 1,0,0,0,0,0,0,0,0,0,0,0,0,0,0,1,
scooby_state_448d5a|21|7 1,0,0,0,0,0,0,0,0,0,0,0,0,0,0,1,
scooby_state_4484f8|9|1 1,0,0,0,0,0,0,0,0,0,0,0,0,0,0,1,
scooby_state_4466cc|0|0 1,0,0,0,0,0,0,0,0,0,0,0,0,0,0,1,
scooby_state_446772|49|28 1,0,0,0,0,0,0,0,0,0,0,0,0,0,0,1,
scooby_state_448ef4|9|-20 1,0,0,0,0,0,0,0,0,0,0,0,0,0,0,1,
scooby_state_447482|24|-29 1,0,0,0,0,0,0,0,0,0,0,0,0,0,0,1,
scooby_state_44677e|24|-1 1,0,0,0,0,0,0,0,0,0,0,0,0,0,0,1,
scooby_state_446907|52|30 1,0,0,0,0,0,0,0,0,0,0,0,0,0,0,1,
scooby_state_44693d|7|0 1,0,0,0,0,0,0,0,0,0,0,0,0,0,0,1,
scooby_state_446e44|26|0 0,0,0,0,0,0,0,0,0,0,0,0,0,0,1,1,
scooby_state_446907|51|29 1,0,0,0,0,0,0,0,0,0,0,0,0,0,0,1,
scooby_state_44a12c|37|2 1,0,0,0,0,0,0,0,0,0,0,0,0,0,0,1,
scooby_state_4467c9|63|23 1,0,0,0,0,0,0,0,0,0,0,0,0,0,0,1,
scooby_state_449993|34|11 1,0,0,0,0,0,0,0,0,0,0,0,0,0,0,1,
scooby_state_449f92|34|0 1,0,0,0,0,0,0,0,0,0,0,0,0,0,0,1,
scooby_state_447edc|32|-19 1,0,0,0,0,0,0,0,0,0,0,0,0,0,0,1,
scooby_state_446389|12|-21 1,0,0,0,0,0,0,0,0,0,0,0,0,0,0,1,
scooby_state_44993e|16|0 1,0,0,0,0,0,0,0,0,0,0,0,0,0,0,1,
scooby_state_446626|35|29 1,0,0,0,0,0,0,0,0,0,0,0,0,0,0,1,
scooby_state_44993e|40|0 1,0,0,0,0,0,0,0,0,0,0,0,0,0,0,1,
scooby_state_448ee5|10|-37 1,0,0,0,0,0,0,0,0,0,0,0,0,0,0,1,
scooby_state_446650|14|-49 1,0,0,0,0,0,0,0,0,0,0,0,0,0,0,1,
scooby_state_448c4a|28|-26 1,0,0,0,0,0,0,0,0,0,0,0,0,0,0,1,
scooby_state_447edc|40|6 1,0,0,0,0,0,0,0,0,0,0,0,0,0,0,1,
scooby_state_446650|12|-51 1,0,0,0,0,0,0,0,0,0,0,0,0,0,0,1,
scooby_state_4497c4|56|7 1,0,0,0,0,0,0,0,0,0,0,0,0,0,0,1,
scooby_state_4469c8|14|-36 1,0,0,0,0,0,0,0,0,0,0,0,0,0,0,1,
scooby_state_44677e|20|0 1,0,0,0,0,0,0,0,0,0,0,0,0,0,0,1,
scooby_state_448ef4|19|4 1,0,0,0,0,0,0,0,0,0,0,0,0,0,0,1,
scooby_state_446626|60|30 1,0,0,0,0,0,0,0,0,0,0,0,0,0,0,1,
scooby_state_44684c|53|0 1,0,0,0,0,0,0,0,0,0,0,0,0,0,0,1,
scooby_state_449802|32|1 1,0,0,0,0,0,0,0,0,0,0,0,0,0,0,1,
scooby_state_446d5d|49|40 1,0,0,0,0,0,0,0,0,0,0,0,0,0,0,1,
scooby_state_449647|31|31 1,0,0,0,0,0,0,0,0,0,0,0,0,0,0,1,
scooby_state_44967a|27|0 1,0,0,0,0,0,0,0,0,0,0,0,0,0,0,1,
scooby_state_4469f2|40|25 1,0,0,0,0,0,0,0,0,0,0,0,0,0,0,1,
scooby_state_4497c4|22|-30 1,0,0,0,0,0,0,0,0,0,0,0,0,0,0,1,
scooby_state_448f8a|28|4 1,0,0,0,0,0,0,0,0,0,0,0,0,0,0,1,
scooby_state_44a1dd|63|53 1,0,0,0,0,0,0,0,0,0,0,0,0,0,0,1,
scooby_state_44677e|44|28 1,0,0,0,0,0,0,0,0,0,0,0,0,0,0,1,
scooby_state_448cc9|37|8 1,0,0,0,0,0,0,0,0,0,0,0,0,0,0,1,
scooby_state_44677e|36|28 1,0,0,0,0,0,0,0,0,0,0,0,0,0,0,1,
scooby_state_446650|12|0 1,0,0,0,0,0,0,0,0,0,0,0,0,0,0,1,
scooby_state_447eb2|21|5 1,0,0,0,0,0,0,0,0,0,0,0,0,0,0,1,
scooby_state_44973a|0|-56 1,0,0,0,0,0,0,0,0,0,0,0,0,0,0,1,
scooby_state_446650|34|-29 1,0,0,0,0,0,0,0,0,0,0,0,0,0,0,1,
scooby_state_448e9b|10|0 1,0,0,0,0,0,0,0,0,0,0,0,0,0,0,1,
scooby_state_4499f8|56|2 1,0,0,0,0,0,0,0,0,0,0,0,0,0,0,1,
scooby_state_44993e|36|0 1,0,0,0,0,0,0,0,0,0,0,0,0,0,0,1,
scooby_state_448819|55|1 1,0,0,0,0,0,0,0,0,0,0,0,0,0,0,1,
scooby_state_447747|56|30 1,0,0,0,0,0,0,0,0,0,0,0,0,0,0,1,
scooby_state_449703|3|-29 1,0,0,0,0,0,0,0,0,0,0,0,0,0,0,1,
scooby_state_44660f|57|-1 1,0,0,0,0,0,0,0,0,0,0,0,0,0,0,1,
scooby_state_447eb2|0|0 1,0,0,0,0,0,0,0,0,0,0,0,0,0,0,1,
scooby_state_446626|61|30 1,0,0,0,0,0,0,0,0,0,0,0,0,0,0,1,
scooby_state_44a12c|5|-26 1,0,0,0,0,0,0,0,0,0,0,0,0,0,0,1,
scooby_state_44660f|57|28 1,0,0,0,0,0,0,0,0,0,0,0,0,0,0,1,
scooby_state_44a078|28|0 1,0,0,0,0,0,0,0,0,0,0,0,0,0,0,1,
scooby_state_449018|19|-10 1,0,0,0,0,0,0,0,0,0,0,0,0,0,0,1,
scooby_state_4486b4|12|-29 1,0,0,0,0,0,0,0,0,0,0,0,0,0,0,1,
scooby_state_44a461|30|13 1,0,0,0,0,0,0,0,0,0,0,0,0,0,0,1,
scooby_state_446772|50|30 1,0,0,0,0,0,0,0,0,0,0,0,0,0,0,1,
scooby_state_448388|15|1 1,0,0,0,0,0,0,0,0,0,0,0,0,0,0,1,
scooby_state_449778|20|20 1,0,0,0,0,0,0,0,0,0,0,0,0,0,0,1,
scooby_state_4497c4|47|11 1,0,0,0,0,0,0,0,0,0,0,0,0,0,0,1,
scooby_state_446772|36|1 1,0,0,0,0,0,0,0,0,0,0,0,0,0,0,1,
scooby_state_44677e|57|28 1,0,0,0,0,0,0,0,0,0,0,0,0,0,0,1,
scooby_state_44684c|54|0 1,0,0,0,0,0,0,0,0,0,0,0,0,0,0,1,
scooby_state_44819a|39|-24 1,0,0,0,0,0,0,0,0,0,0,0,0,0,0,1,
scooby_state_4497c4|41|2 1,0,0,0,0,0,0,0,0,0,0,0,0,0,0,1,
scooby_state_4474f1|37|30 0,0,0,0,0,0,0,0,0,0,0,0,0,0,1,1,
scooby_state_44999e|18|6 1,0,0,0,0,0,0,0,0,0,0,0,0,0,0,1,
scooby_state_446907|59|58 1,0,0,0,0,0,0,0,0,0,0,0,0,0,0,1,
scooby_state_44744b|48|8 1,0,0,0,0,0,0,0,0,0,0,0,0,0,0,1,
scooby_state_446626|59|58 1,0,0,0,0,0,0,0,0,0,0,0,0,0,0,1,
scooby_state_4488d3|34|0 1,0,0,0,0,0,0,0,0,0,0,0,0,0,0,1,
scooby_state_44a2d2|21|4 1,0,0,0,0,0,0,0,0,0,0,0,0,0,0,1,
scooby_state_44677e|21|0 1,0,0,0,0,0,0,0,0,0,0,0,0,0,0,1,
scooby_state_44660f|1|-30 1,0,0,0,0,0,0,0,0,0,0,0,0,0,0,1,
scooby_state_449f92|56|-7 1,0,0,0,0,0,0,0,0,0,0,0,0,0,0,1,
scooby_state_44808f|61|0 1,0,0,0,0,0,0,0,0,0,0,0,0,0,0,1,
scooby_state_446907|34|29 1,0,0,0,0,0,0,0,0,0,0,0,0,0,0,1,
scooby_state_446626|48|29 1,0,0,0,0,0,0,0,0,0,0,0,0,0,0,1,
scooby_state_4497b0|53|3 1,0,0,0,0,0,0,0,0,0,0,0,0,0,0,1,
scooby_state_446907|30|29 1,0,0,0,0,0,0,0,0,0,0,0,0,0,0,1,
scooby_state_447df2|22|0 1,0,0,0,0,0,0,0,0,0,0,0,0,0,0,1,
scooby_state_44804c|8|-29 1,0,0,0,0,0,0,0,0,0,0,0,0,0,0,1,
scooby_state_447f89|15|0 1,0,0,0,0,0,0,0,0,0,0,0,0,0,0,1,
scooby_state_44660f|7|0 1,0,0,0,0,0,0,0,0,0,0,0,0,0,0,1,
scooby_state_4469f2|42|27 1,0,0,0,0,0,0,0,0,0,0,0,0,0,0,1,
scooby_state_446896|1|-44 1,0,0,0,0,0,0,0,0,0,0,0,0,0,0,1,
scooby_state_44677e|14|0 1,0,0,0,0,0,0,0,0,0,0,0,0,0,0,1,
scooby_state_44660f|30|-1 1,0,0,0,0,0,0,0,0,0,0,0,0,0,0,1,
scooby_state_449778|26|0 1,0,0,0,0,0,0,0,0,0,0,0,0,0,0,1,
scooby_state_4475eb|31|6 1,0,0,0,0,0,0,0,0,0,0,0,0,0,0,1,
scooby_state_44677e|61|28 1,0,0,0,0,0,0,0,0,0,0,0,0,0,0,1,
scooby_state_4473a5|45|0 1,0,0,0,0,0,0,0,0,0,0,0,0,0,0,1,
scooby_state_446dd2|42|2 0,1,0,0,0,0,0,0,0,0,0,0,0,0,0,1,
scooby_state_447e06|11|-31 1,0,0,0,0,0,0,0,0,0,0,0,0,0,0,1,
scooby_state_446ec0|59|0 1,0,0,0,0,0,0,0,0,0,0,0,0,0,0,1,
scooby_state_446381|33|0 1,0,0,0,0,0,0,0,0,0,0,0,0,0,0,1,
scooby_state_4467b9|62|0 1,0,0,0,0,0,0,0,0,0,0,0,0,0,0,1,
scooby_state_4498d4|17|-46 1,0,0,0,0,0,0,0,0,0,0,0,0,0,0,1,
scooby_state_44996a|7|-12 1,0,0,0,0,0,0,0,0,0,0,0,0,0,0,1,
scooby_state_447eb2|22|15 1,0,0,0,0,0,0,0,0,0,0,0,0,0,0,1,
scooby_state_446791|58|57 1,0,0,0,0,0,0,0,0,0,0,0,0,0,0,1,
scooby_state_448d84|25|-38 1,0,0,0,0,0,0,0,0,0,0,0,0,0,0,1,
scooby_state_44677e|3|0 1,0,0,0,0,0,0,0,0,0,0,0,0,0,0,1,
scooby_state_447771|16|0 1,0,0,0,0,0,0,0,0,0,0,0,0,0,0,1,
scooby_state_44a2d2|32|0 1,0,0,0,0,0,0,0,0,0,0,0,0,0,0,1,
scooby_state_4465e9|62|58 1,0,0,0,0,0,0,0,0,0,0,0,0,0,0,1,
scooby_state_446772|38|0 1,0,0,0,0,0,0,0,0,0,0,0,0,0,0,1,
scooby_state_448c9a|15|0 1,0,0,0,0,0,0,0,0,0,0,0,0,0,0,1,
scooby_state_446626|41|29 1,0,0,0,0,0,0,0,0,0,0,0,0,0,0,1,
scooby_state_4465e9|58|0 1,0,0,0,0,0,0,0,0,0,0,0,0,0,0,1,
scooby_state_448393|46|-1 1,0,0,0,0,0,0,0,0,0,0,0,0,0,0,1,
scooby_state_4486a9|4|4 1,0,0,0,0,0,0,0,0,0,0,0,0,0,0,1,
scooby_state_447f3c|47|5 1,0,0,0,0,0,0,0,0,0,0,0,0,0,0,1,
scooby_state_44962a|45|1 1,0,0,0,0,0,0,0,0,0,0,0,0,0,0,1,
scooby_state_446896|51|33 1,0,0,0,0,0,0,0,0,0,0,0,0,0,0,1,
scooby_state_44660f|11|-2 1,0,0,0,0,0,0,0,0,0,0,0,0,0,0,1,
scooby_state_448e1e|44|0 1,0,0,0,0,0,0,0,0,0,0,0,0,0,0,1,
scooby_state_446d5d|51|40 1,0,0,0,0,0,0,0,0,0,0,0,0,0,0,1,
scooby_state_44808f|57|0 1,0,0,0,0,0,0,0,0,0,0,0,0,0,0,1,
scooby_state_44677e|60|1 1,0,0,0,0,0,0,0,0,0,0,0,0,0,0,1,
scooby_state_449fa6|10|0 1,0,0,0,0,0,0,0,0,0,0,0,0,0,0,1,
scooby_state_4486b4|58|1 1,0,0,0,0,0,0,0,0,0,0,0,0,0,0,1,
scooby_state_447fed|47|12 1,0,0,0,0,0,0,0,0,0,0,0,0,0,0,1,
scooby_state_447e7b|45|34 1,0,0,0,0,0,0,0,0,0,0,0,0,0,0,1,
scooby_state_4474c0|17|17 1,0,0,0,0,0,0,0,0,0,0,0,0,0,0,1,
scooby_state_44677e|60|28 1,0,0,0,0,0,0,0,0,0,0,0,0,0,0,1,
scooby_state_447538|17|0 1,0,0,0,0,0,0,0,0,0,0,0,0,0,0,1,
scooby_state_447771|42|27 1,0,0,0,0,0,0,0,0,0,0,0,0,0,0,1,
scooby_state_446381|14|1 1,0,0,0,0,0,0,0,0,0,0,0,0,0,0,1,
scooby_state_4498d4|22|9 1,0,0,0,0,0,0,0,0,0,0,0,0,0,0,1,
scooby_state_447eb2|20|13 1,0,0,0,0,0,0,0,0,0,0,0,0,0,0,1,
scooby_state_448f8a|7|-52 1,0,0,0,0,0,0,0,0,0,0,0,0,0,0,1,
scooby_state_44677e|51|1 1,0,0,0,0,0,0,0,0,0,0,0,0,0,0,1,
scooby_state_446896|51|35 1,0,0,0,0,0,0,0,0,0,0,0,0,0,0,1,
scooby_state_449917|60|0 1,0,0,0,0,0,0,0,0,0,0,0,0,0,0,1,
scooby_state_447747|15|0 1,0,0,0,0,0,0,0,0,0,0,0,0,0,0,1,
scooby_state_4499f8|11|-21 1,0,0,0,0,0,0,0,0,0,0,0,0,0,0,1,
scooby_state_447f28|63|25 1,0,0,0,0,0,0,0,0,0,0,0,0,0,0,1,
scooby_state_449875|48|11 1,0,0,0,0,0,0,0,0,0,0,0,0,0,0,1,
scooby_state_4480e2|20|9 1,0,0,0,0,0,0,0,0,0,0,0,0,0,0,1,
scooby_state_449791|11|-52 1,0,0,0,0,0,0,0,0,0,0,0,0,0,0,1,
scooby_state_448c67|35|29 1,0,0,0,0,0,0,0,0,0,0,0,0,0,0,1,
scooby_state_44677e|53|28 1,0,0,0,0,0,0,0,0,0,0,0,0,0,0,1,
scooby_state_4465fb|59|57 1,0,0,0,0,0,0,0,0,0,0,0,0,0,0,1,
scooby_state_4498d4|19|5 1,0,0,0,0,0,0,0,0,0,0,0,0,0,0,1,
scooby_state_4486ec|47|3 1,0,0,0,0,0,0,0,0,0,0,0,0,0,0,1,
scooby_state_4466cc|5|0 1,0,0,0,0,0,0,0,0,0,0,0,0,0,0,1,
scooby_state_448944|37|1 1,0,0,0,0,0,0,0,0,0,0,0,0,0,0,1,
scooby_state_446d6d|13|-45 0,0,1,0,0,0,0,0,0,0,0,0,0,0,0,1,
scooby_state_448cc9|59|27 1,0,0,0,0,0,0,0,0,0,0,0,0,0,0,1,
scooby_state_44744b|41|2 1,0,0,0,0,0,0,0,0,0,0,0,0,0,0,1,
scooby_state_4466cc|2|0 1,0,0,0,0,0,0,0,0,0,0,0,0,0,0,1,
scooby_state_448819|50|1 1,0,0,0,0,0,0,0,0,0,0,0,0,0,0,1,
scooby_state_4465e9|54|0 1,0,0,0,0,0,0,0,0,0,0,0,0,0,0,1,
scooby_state_4465e9|63|57 1,0,0,0,0,0,0,0,0,0,0,0,0,0,0,1,
scooby_state_44755d|13|13 1,0,0,0,0,0,0,0,0,0,0,0,0,0,0,1,
scooby_state_4465fb|61|57 1,0,0,0,0,0,0,0,0,0,0,0,0,0,0,1,
scooby_state_4497b0|5|1 1,0,0,0,0,0,0,0,0,0,0,0,0,0,0,1,
scooby_state_447f3c|16|-30 1,0,0,0,0,0,0,0,0,0,0,0,0,0,0,1,
scooby_state_44660f|26|0 1,0,0,0,0,0,0,0,0,0,0,0,0,0,0,1,
scooby_state_449a22|27|13 1,0,0,0,0,0,0,0,0,0,0,0,0,0,0,1,
scooby_state_44660f|52|28 1,0,0,0,0,0,0,0,0,0,0,0,0,0,0,1,
scooby_state_4473cf|12|-38 1,0,0,0,0,0,0,0,0,0,0,0,0,0,0,1,
scooby_state_449147|5|0 1,0,0,0,0,0,0,0,0,0,0,0,0,0,0,1,
scooby_state_4465fb|63|57 1,0,0,0,0,0,0,0,0,0,0,0,0,0,0,1,
scooby_state_44973a|23|-31 1,0,0,0,0,0,0,0,0,0,0,0,0,0,0,1,
scooby_state_44660f|8|-1 1,0,0,0,0,0,0,0,0,0,0,0,0,0,0,1,
scooby_state_4467b9|63|0 1,0,0,0,0,0,0,0,0,0,0,0,0,0,0,1,
scooby_state_44a203|49|26 1,0,0,0,0,0,0,0,0,0,0,0,0,0,0,1,
scooby_state_449917|25|0 1,0,0,0,0,0,0,0,0,0,0,0,0,0,0,1,
scooby_state_447747|57|31 1,0,0,0,0,0,0,0,0,0,0,0,0,0,0,1,
scooby_state_44666f|63|56 1,0,0,0,0,0,0,0,0,0,0,0,0,0,0,1,
scooby_state_44a1dd|60|13 1,0,0,0,0,0,0,0,0,0,0,0,0,0,0,1,

scooby_action_0_deg_dist 0,8856,0,0,0,0,0,0,0,0,0,0,0,0,0,0,
scooby_action_12_deg_dist 0,5415,2419,0,5407,0,5526,0,0,0,0,0,0,0,0,0,
scooby_action_3_deg_dist 0,1572,0,0,0,0,0,0,0,0,0,0,0,0,0,0,
scooby_action_32_deg_dist 0,1166,0,0,0,0,0,0,0,0,0,0,0,0,0,0,
scooby_action_5_deg_dist 0,1405,1,0,0,0,0,0,0,0,0,0,0,0,0,0,
scooby_action_1_deg_dist 0,1296667,569194,0,399857,0,2989159,0,0,0,0,0,0,0,0,0,
scooby_action_30_deg_dist 0,21632,793,0,0,0,0,0,0,0,0,0,0,0,0,0,
scooby_action_4_deg_dist 0,6111,2572,0,6430,0,72899,0,0,0,0,0,0,0,0,0,
scooby_action_-3_deg_dist 0,1317,1,0,0,0,0,0,0,0,0,0,0,0,0,0,
scooby_action_10_deg_dist 0,1409,0,0,0,0,0,0,0,0,0,0,0,0,0,0,
scooby_action_-1_deg_dist 0,2545,0,0,0,0,0,0,0,0,0,0,0,0,0,0,
scooby_action_23_deg_dist 0,1360,0,0,0,0,0,0,0,0,0,0,0,0,0,0,
scooby_action_-6_deg_dist 0,1295,0,0,0,0,0,0,0,0,0,0,0,0,0,0,
scooby_action_11_deg_dist 0,5030,2207,0,5328,0,13329,0,0,0,0,0,0,0,0,0,
scooby_action_22_deg_dist 0,1241,0,0,0,0,0,0,0,0,0,0,0,0,0,0,

scooby_track_called 5432143
scooby_track_same_address 15408
scooby_track_evict 5416479

scooby_reward_demand_called 5432143
scooby_reward_demand_pt_not_found 1095524
scooby_reward_demand_pt_found 4336619
scooby_reward_demand_pt_found_total 4336619
scooby_reward_demand_has_reward 5689
scooby_reward_train_called 976369
scooby_reward_assign_reward_called 5416700
scooby_reward_no_pref 8856
scooby_reward_incorrect 967513
scooby_reward_correct_untimely 3281427
scooby_reward_correct_timely 1049503
scooby_reward_out_of_bounds 109401
scooby_reward_tracker_hit 0

scooby_reward_none_low_bw 8856
scooby_reward_none_high_bw 0
scooby_reward_incorrect_low_bw 967513
scooby_reward_incorrect_high_bw 0
scooby_reward_correct_untimely_low_bw 3281427
scooby_reward_correct_untimely_high_bw 0
scooby_reward_correct_timely_low_bw 1049503
scooby_reward_correct_timely_high_bw 0
scooby_reward_out_of_bounds_low_bw 109401
scooby_reward_out_of_bounds_high_bw 0
scooby_reward_tracker_hit_low_bw 0
scooby_reward_tracker_hit_high_bw 0

scooby_reward_1 0,945482,3200577,1009921,85058,0,
scooby_reward_3 0,933,341,93,74,0,
scooby_reward_4 0,2632,70658,9153,5477,0,
scooby_reward_5 0,951,159,189,106,0,
scooby_reward_10 0,812,75,289,217,0,
scooby_reward_11 0,2307,6077,13101,4397,0,
scooby_reward_12 0,2669,2224,10283,3572,0,
scooby_reward_22 0,773,5,41,398,0,
scooby_reward_23 0,804,1,14,457,0,
scooby_reward_30 0,6821,266,6413,8907,0,
scooby_reward_32 0,580,14,5,567,0,
scooby_reward_-1 0,1025,1029,1,22,0,
scooby_reward_-3 0,882,1,0,51,0,
scooby_reward_-6 0,842,0,0,98,0,
scooby_reward_0 8856,0,0,0,0,0,

scooby_train_called 5416478
scooby_train_compute_reward 976369

scooby_register_fill_called 4783420
scooby_register_fill_set 1542976
scooby_register_fill_set_total 1542976

scooby_register_prefetch_hit_called 13250200
scooby_register_prefetch_hit_set 3645060
scooby_register_prefetch_hit_set_total 3645060

scooby_pref_issue_scooby 21059034

learning_engine_featurewise.action.called 5432143
learning_engine_featurewise.action.explore 9874
learning_engine_featurewise.action.exploit 5422269
learning_engine_featurewise.action.fallback 160051
learning_engine_featurewise.action.dyn_fallback_saved_bw 0
learning_engine_featurewise.action.dyn_fallback_saved_bw_acc 377925
learning_engine_featurewise.action.index_1_explored 678
learning_engine_featurewise.action.index_1_exploited 5254199
learning_engine_featurewise.action.index_3_explored 677
learning_engine_featurewise.action.index_3_exploited 895
learning_engine_featurewise.action.index_4_explored 664
learning_engine_featurewise.action.index_4_exploited 87348
learning_engine_featurewise.action.index_5_explored 626
learning_engine_featurewise.action.index_5_exploited 780
learning_engine_featurewise.action.index_10_explored 707
learning_engine_featurewise.action.index_10_exploited 702
learning_engine_featurewise.action.index_11_explored 669
learning_engine_featurewise.action.index_11_exploited 25225
learning_engine_featurewise.action.index_12_explored 687
learning_engine_featurewise.action.index_12_exploited 18080
learning_engine_featurewise.action.index_22_explored 656
learning_engine_featurewise.action.index_22_exploited 585
learning_engine_featurewise.action.index_23_explored 669
learning_engine_featurewise.action.index_23_exploited 691
learning_engine_featurewise.action.index_30_explored 644
learning_engine_featurewise.action.index_30_exploited 21781
learning_engine_featurewise.action.index_32_explored 607
learning_engine_featurewise.action.index_32_exploited 559
learning_engine_featurewise.action.index_-1_explored 659
learning_engine_featurewise.action.index_-1_exploited 1886
learning_engine_featurewise.action.index_-3_explored 644
learning_engine_featurewise.action.index_-3_exploited 674
learning_engine_featurewise.action.index_-6_explored 641
learning_engine_featurewise.action.index_-6_exploited 654
learning_engine_featurewise.action.index_0_explored 646
learning_engine_featurewise.action.index_0_exploited 8210
learning_engine_featurewise.learn.called 5416478
learning_engine_featurewise.learn.su_skip_PC 0
learning_engine_featurewise.learn.su_skip_PC_Delta 0

learning_engine_featurewise.q_value_histogram.bucket_0 0
learning_engine_featurewise.q_value_histogram.bucket_1 0
learning_engine_featurewise.q_value_histogram.bucket_2 166376
learning_engine_featurewise.q_value_histogram.bucket_3 5096
learning_engine_featurewise.q_value_histogram.bucket_4 9625
learning_engine_featurewise.q_value_histogram.bucket_5 71431
learning_engine_featurewise.q_value_histogram.bucket_6 5169741
learning_engine_featurewise.q_value_histogram.bucket_7 0

learning_engine_featurewise.consensus.total 5422269
learning_engine_featurewise.consensus.feature_align_PC 5358109
learning_engine_featurewise.consensus.feature_align_PC_ratio 0.99
learning_engine_featurewise.consensus.feature_align_PC_Delta 5335249
learning_engine_featurewise.consensus.feature_align_PC_Delta_ratio 0.98
learning_engine_featurewise.consensus.feature_align_all 5271089
learning_engine_featurewise.consensus.feature_align_all_ratio 0.97

learning_engine_featurewise.feature_PC_min_weight 1000000.00000000
learning_engine_featurewise.feature_PC_max_weight 0.00000000
learning_engine_featurewise.feature_PC_Delta_min_weight 1000000.00000000
learning_engine_featurewise.feature_PC_Delta_max_weight 0.00000000
unique_pcs 712
unique_pages 169020
unique_trigger_pcs 284
total_bitmaps_seen 0
unique_bitmaps_seen 0

scooby_bw_epochs 5025602
scooby_bw_level_0 2603124
scooby_bw_level_1 0
scooby_bw_level_2 0
scooby_bw_level_3 2422478

scooby_ipc_epochs 0
scooby_ipc_level_0 0
scooby_ipc_level_1 0
scooby_ipc_level_2 0
scooby_ipc_level_3 0

scooby_cache_acc_epochs 1243235
scooby_cache_acc_level_0 194029
scooby_cache_acc_level_1 105351
scooby_cache_acc_level_2 83253
scooby_cache_acc_level_3 72158
scooby_cache_acc_level_4 71757
scooby_cache_acc_level_5 94944
scooby_cache_acc_level_6 85026
scooby_cache_acc_level_7 78510
scooby_cache_acc_level_8 72751
scooby_cache_acc_level_9 385456

Channel_0_RQ_row_buffer_hit 1411678
Channel_0_RQ_row_buffer_miss 2286704
Channel_0_WQ_row_buffer_hit 376907
Channel_0_WQ_row_buffer_miss 1509482
Channel_0_WQ_full 0
Channel_0_dbus_congested 5757773

avg_congested_cycle 200

DRAM_bw_pochs 5025602
DRAM_bw_level_0 2603124
DRAM_bw_level_1 0
DRAM_bw_level_2 0
DRAM_bw_level_3 2422478
