*************************************************
   ChampSim Multicore Out-of-Order Simulator
   Last compiled: Dec 11 2024 17:59:53
*************************************************
parsing config file: /home/functionmain/桌面/Pythia/config/nopref.ini

trace_0 /home/functionmain/桌面/Pythia/traces/459.GemsFDTD-1418B.champsimtrace.xz
adding L2C_PREFETCHER: NONE
Initialize SHIP state
warmup_instructions 100000000
simulation_instructions 500000000
champsim_seed 272
measure_ipc 0
measure_ipc_epoch 1000
measure_dram_bw 1
measure_dram_bw_epoch 256
measure_cache_acc 1
measure_cache_acc_epoch 1024
l1d_perfect 0
l2c_perfect 0
llc_perfect 0
l1d_semi_perfect 0
l2c_semi_perfect 0
llc_semi_perfect 0
semi_perfect_cache_page_buffer_size 64

num_cpus 1
cpu_freq 4000
dram_io_freq 1200
page_size 4096
block_size 64
max_read_per_cycle 8
max_fill_per_cycle 1
dram_channels 1
log2_dram_channels 0
dram_ranks 1
dram_banks 8
dram_rows 65536
dram_columns 128
dram_row_size 8
dram_size 4096
dram_pages 1048576

fetch_width 6
decode_width 6
exec_width 4
lq_width 2
sq_width 2
retire_width 4
scheduler_size 128
branch_mispredict_penalty 20
rob_size 256
lq_size 72
sq_size 56
num_instr_destinations_sparc 4
num_instr_destinations 2
num_instr_sources 4

itlb_set 16
itlb_way 8
itlb_rq_size 16
itlb_wq_size 16
itlb_pq_size 0
itlb_mshr_size 8
itlb_latency 1

dtlb_set 16
dtlb_way 4
dtlb_rq_size 16
dtlb_wq_size 16
dtlb_pq_size 0
dtlb_mshr_size 8
dtlb_latency 1

stlb_set 128
stlb_way 12
stlb_rq_size 32
stlb_wq_size 32
stlb_pq_size 0
stlb_mshr_size 16
stlb_latency 8

l1i_size 32
l1i_set 64
l1i_way 8
l1i_rq_size 64
l1i_wq_size 64
l1i_pq_size 8
l1i_mshr_size 8
l1i_latency 1

l1d_size 32
l1d_set 64
l1d_way 8
l1d_rq_size 64
l1d_wq_size 64
l1d_pq_size 8
l1d_mshr_size 16
l1d_latency 4

l2c_size 256
l2c_set 512
l2c_way 8
l2c_rq_size 32
l2c_wq_size 32
l2c_pq_size 32
l2c_mshr_size 32
l2c_latency 10

llc_size 2048
llc_set 2048
llc_way 16
llc_rq_size 32
llc_wq_size 32
llc_pq_size 32
llc_mshr_size 64
llc_latency 20

dram_channel_width 8
dram_wq_size 64
dram_rq_size 64
tRP 15
tRCD 15
tCAS 12.5
dram_dbus_turn_around_time 30
dram_write_high_wm 56
dram_write_low_wm 48
min_dram_writes_per_switch 16
dram_mtps 1200
dram_dbus_return_time 26


Heartbeat CPU  0 instructions:    1000001 cycles:     779178 heartbeat IPC: 1.28341 cumulative IPC: 1.28341 (Simulation time: 0 hr 0 min 3 sec) 
Heartbeat CPU  0 instructions:    2000002 cycles:    1558152 heartbeat IPC: 1.28374 cumulative IPC: 1.28357 (Simulation time: 0 hr 0 min 5 sec) 
Heartbeat CPU  0 instructions:    3000003 cycles:    2336864 heartbeat IPC: 1.28417 cumulative IPC: 1.28377 (Simulation time: 0 hr 0 min 8 sec) 
Heartbeat CPU  0 instructions:    4000000 cycles:    3116173 heartbeat IPC: 1.28318 cumulative IPC: 1.28363 (Simulation time: 0 hr 0 min 10 sec) 
Heartbeat CPU  0 instructions:    5000001 cycles:    3895522 heartbeat IPC: 1.28312 cumulative IPC: 1.28353 (Simulation time: 0 hr 0 min 12 sec) 
Heartbeat CPU  0 instructions:    6000002 cycles:    4674797 heartbeat IPC: 1.28325 cumulative IPC: 1.28348 (Simulation time: 0 hr 0 min 15 sec) 
Heartbeat CPU  0 instructions:    7000003 cycles:    5453801 heartbeat IPC: 1.28369 cumulative IPC: 1.28351 (Simulation time: 0 hr 0 min 17 sec) 
Heartbeat CPU  0 instructions:    8000000 cycles:    6232307 heartbeat IPC: 1.28451 cumulative IPC: 1.28363 (Simulation time: 0 hr 0 min 20 sec) 
Heartbeat CPU  0 instructions:    9000002 cycles:    7011306 heartbeat IPC: 1.28370 cumulative IPC: 1.28364 (Simulation time: 0 hr 0 min 22 sec) 
Heartbeat CPU  0 instructions:   10000003 cycles:    7790046 heartbeat IPC: 1.28413 cumulative IPC: 1.28369 (Simulation time: 0 hr 0 min 25 sec) 
Heartbeat CPU  0 instructions:   11000000 cycles:    8568829 heartbeat IPC: 1.28405 cumulative IPC: 1.28372 (Simulation time: 0 hr 0 min 27 sec) 
Heartbeat CPU  0 instructions:   12000000 cycles:    9347673 heartbeat IPC: 1.28395 cumulative IPC: 1.28374 (Simulation time: 0 hr 0 min 30 sec) 
Heartbeat CPU  0 instructions:   13000003 cycles:   10127050 heartbeat IPC: 1.28308 cumulative IPC: 1.28369 (Simulation time: 0 hr 0 min 32 sec) 
Heartbeat CPU  0 instructions:   14000000 cycles:   10906393 heartbeat IPC: 1.28313 cumulative IPC: 1.28365 (Simulation time: 0 hr 0 min 34 sec) 
Heartbeat CPU  0 instructions:   15000001 cycles:   11685358 heartbeat IPC: 1.28376 cumulative IPC: 1.28366 (Simulation time: 0 hr 0 min 37 sec) 
Heartbeat CPU  0 instructions:   16000000 cycles:   12464580 heartbeat IPC: 1.28333 cumulative IPC: 1.28364 (Simulation time: 0 hr 0 min 39 sec) 
Heartbeat CPU  0 instructions:   17000003 cycles:   13243309 heartbeat IPC: 1.28415 cumulative IPC: 1.28367 (Simulation time: 0 hr 0 min 42 sec) 
Heartbeat CPU  0 instructions:   18000000 cycles:   14021967 heartbeat IPC: 1.28426 cumulative IPC: 1.28370 (Simulation time: 0 hr 0 min 44 sec) 
Heartbeat CPU  0 instructions:   19000003 cycles:   14800981 heartbeat IPC: 1.28368 cumulative IPC: 1.28370 (Simulation time: 0 hr 0 min 47 sec) 
Heartbeat CPU  0 instructions:   20000000 cycles:   15579820 heartbeat IPC: 1.28396 cumulative IPC: 1.28371 (Simulation time: 0 hr 0 min 49 sec) 
Heartbeat CPU  0 instructions:   21000003 cycles:   16359308 heartbeat IPC: 1.28290 cumulative IPC: 1.28367 (Simulation time: 0 hr 0 min 52 sec) 
Heartbeat CPU  0 instructions:   22000002 cycles:   17138675 heartbeat IPC: 1.28309 cumulative IPC: 1.28365 (Simulation time: 0 hr 0 min 54 sec) 
Heartbeat CPU  0 instructions:   23000003 cycles:   17917848 heartbeat IPC: 1.28341 cumulative IPC: 1.28364 (Simulation time: 0 hr 0 min 56 sec) 
Heartbeat CPU  0 instructions:   24000000 cycles:   18697146 heartbeat IPC: 1.28320 cumulative IPC: 1.28362 (Simulation time: 0 hr 0 min 59 sec) 
Heartbeat CPU  0 instructions:   25000001 cycles:   19475633 heartbeat IPC: 1.28454 cumulative IPC: 1.28366 (Simulation time: 0 hr 1 min 1 sec) 
Heartbeat CPU  0 instructions:   26000001 cycles:   20254448 heartbeat IPC: 1.28400 cumulative IPC: 1.28367 (Simulation time: 0 hr 1 min 4 sec) 
Heartbeat CPU  0 instructions:   27000002 cycles:   21033337 heartbeat IPC: 1.28388 cumulative IPC: 1.28368 (Simulation time: 0 hr 1 min 6 sec) 
Heartbeat CPU  0 instructions:   28000000 cycles:   21812145 heartbeat IPC: 1.28401 cumulative IPC: 1.28369 (Simulation time: 0 hr 1 min 9 sec) 
Heartbeat CPU  0 instructions:   29000001 cycles:   22591260 heartbeat IPC: 1.28351 cumulative IPC: 1.28368 (Simulation time: 0 hr 1 min 11 sec) 
Heartbeat CPU  0 instructions:   30000002 cycles:   23370741 heartbeat IPC: 1.28291 cumulative IPC: 1.28366 (Simulation time: 0 hr 1 min 14 sec) 
Heartbeat CPU  0 instructions:   31000003 cycles:   24149910 heartbeat IPC: 1.28342 cumulative IPC: 1.28365 (Simulation time: 0 hr 1 min 16 sec) 
Heartbeat CPU  0 instructions:   32000000 cycles:   24928942 heartbeat IPC: 1.28364 cumulative IPC: 1.28365 (Simulation time: 0 hr 1 min 18 sec) 
Heartbeat CPU  0 instructions:   33000003 cycles:   25707713 heartbeat IPC: 1.28408 cumulative IPC: 1.28366 (Simulation time: 0 hr 1 min 21 sec) 
Heartbeat CPU  0 instructions:   34000002 cycles:   26477221 heartbeat IPC: 1.29953 cumulative IPC: 1.28412 (Simulation time: 0 hr 1 min 23 sec) 
Heartbeat CPU  0 instructions:   35000001 cycles:   27259372 heartbeat IPC: 1.27852 cumulative IPC: 1.28396 (Simulation time: 0 hr 1 min 26 sec) 
Heartbeat CPU  0 instructions:   36000000 cycles:   28039892 heartbeat IPC: 1.28120 cumulative IPC: 1.28389 (Simulation time: 0 hr 1 min 28 sec) 
Heartbeat CPU  0 instructions:   37000000 cycles:   28820404 heartbeat IPC: 1.28121 cumulative IPC: 1.28381 (Simulation time: 0 hr 1 min 31 sec) 
Heartbeat CPU  0 instructions:   38000001 cycles:   29600558 heartbeat IPC: 1.28180 cumulative IPC: 1.28376 (Simulation time: 0 hr 1 min 33 sec) 
Heartbeat CPU  0 instructions:   39000003 cycles:   30380984 heartbeat IPC: 1.28135 cumulative IPC: 1.28370 (Simulation time: 0 hr 1 min 36 sec) 
Heartbeat CPU  0 instructions:   40000000 cycles:   31161810 heartbeat IPC: 1.28069 cumulative IPC: 1.28362 (Simulation time: 0 hr 1 min 38 sec) 
Heartbeat CPU  0 instructions:   41000000 cycles:   31942621 heartbeat IPC: 1.28072 cumulative IPC: 1.28355 (Simulation time: 0 hr 1 min 40 sec) 
Heartbeat CPU  0 instructions:   42000002 cycles:   32722956 heartbeat IPC: 1.28150 cumulative IPC: 1.28350 (Simulation time: 0 hr 1 min 43 sec) 
Heartbeat CPU  0 instructions:   43000000 cycles:   33502940 heartbeat IPC: 1.28208 cumulative IPC: 1.28347 (Simulation time: 0 hr 1 min 45 sec) 
Heartbeat CPU  0 instructions:   44000000 cycles:   34282500 heartbeat IPC: 1.28277 cumulative IPC: 1.28345 (Simulation time: 0 hr 1 min 48 sec) 
Heartbeat CPU  0 instructions:   45000000 cycles:   35062153 heartbeat IPC: 1.28262 cumulative IPC: 1.28344 (Simulation time: 0 hr 1 min 50 sec) 
Heartbeat CPU  0 instructions:   46000002 cycles:   35841961 heartbeat IPC: 1.28237 cumulative IPC: 1.28341 (Simulation time: 0 hr 1 min 53 sec) 
Heartbeat CPU  0 instructions:   47000001 cycles:   36620836 heartbeat IPC: 1.28390 cumulative IPC: 1.28342 (Simulation time: 0 hr 1 min 55 sec) 
Heartbeat CPU  0 instructions:   48000000 cycles:   37400038 heartbeat IPC: 1.28336 cumulative IPC: 1.28342 (Simulation time: 0 hr 1 min 58 sec) 
Heartbeat CPU  0 instructions:   49000001 cycles:   38179936 heartbeat IPC: 1.28222 cumulative IPC: 1.28340 (Simulation time: 0 hr 2 min 0 sec) 
Heartbeat CPU  0 instructions:   50000002 cycles:   38959782 heartbeat IPC: 1.28231 cumulative IPC: 1.28337 (Simulation time: 0 hr 2 min 2 sec) 
Heartbeat CPU  0 instructions:   51000000 cycles:   39738662 heartbeat IPC: 1.28389 cumulative IPC: 1.28338 (Simulation time: 0 hr 2 min 5 sec) 
Heartbeat CPU  0 instructions:   52000000 cycles:   40517543 heartbeat IPC: 1.28389 cumulative IPC: 1.28339 (Simulation time: 0 hr 2 min 7 sec) 
Heartbeat CPU  0 instructions:   53000002 cycles:   41298351 heartbeat IPC: 1.28073 cumulative IPC: 1.28334 (Simulation time: 0 hr 2 min 10 sec) 
Heartbeat CPU  0 instructions:   54000000 cycles:   42078654 heartbeat IPC: 1.28155 cumulative IPC: 1.28331 (Simulation time: 0 hr 2 min 12 sec) 
Heartbeat CPU  0 instructions:   55000002 cycles:   42858429 heartbeat IPC: 1.28242 cumulative IPC: 1.28329 (Simulation time: 0 hr 2 min 15 sec) 
Heartbeat CPU  0 instructions:   56000000 cycles:   43638640 heartbeat IPC: 1.28170 cumulative IPC: 1.28327 (Simulation time: 0 hr 2 min 17 sec) 
Heartbeat CPU  0 instructions:   57000001 cycles:   44419667 heartbeat IPC: 1.28037 cumulative IPC: 1.28322 (Simulation time: 0 hr 2 min 20 sec) 
Heartbeat CPU  0 instructions:   58000000 cycles:   45200234 heartbeat IPC: 1.28112 cumulative IPC: 1.28318 (Simulation time: 0 hr 2 min 22 sec) 
Heartbeat CPU  0 instructions:   59000001 cycles:   45980479 heartbeat IPC: 1.28165 cumulative IPC: 1.28315 (Simulation time: 0 hr 2 min 25 sec) 
Heartbeat CPU  0 instructions:   60000000 cycles:   46760749 heartbeat IPC: 1.28161 cumulative IPC: 1.28313 (Simulation time: 0 hr 2 min 27 sec) 
Heartbeat CPU  0 instructions:   61000003 cycles:   47541752 heartbeat IPC: 1.28041 cumulative IPC: 1.28308 (Simulation time: 0 hr 2 min 30 sec) 
Heartbeat CPU  0 instructions:   62000002 cycles:   48321009 heartbeat IPC: 1.28327 cumulative IPC: 1.28309 (Simulation time: 0 hr 2 min 32 sec) 
Heartbeat CPU  0 instructions:   63000002 cycles:   49100415 heartbeat IPC: 1.28303 cumulative IPC: 1.28308 (Simulation time: 0 hr 2 min 34 sec) 
Heartbeat CPU  0 instructions:   64000000 cycles:   49879605 heartbeat IPC: 1.28338 cumulative IPC: 1.28309 (Simulation time: 0 hr 2 min 37 sec) 
Heartbeat CPU  0 instructions:   65000002 cycles:   50659307 heartbeat IPC: 1.28254 cumulative IPC: 1.28308 (Simulation time: 0 hr 2 min 39 sec) 
Heartbeat CPU  0 instructions:   66000001 cycles:   51438132 heartbeat IPC: 1.28398 cumulative IPC: 1.28309 (Simulation time: 0 hr 2 min 42 sec) 
Heartbeat CPU  0 instructions:   67000003 cycles:   52217193 heartbeat IPC: 1.28360 cumulative IPC: 1.28310 (Simulation time: 0 hr 2 min 44 sec) 
Heartbeat CPU  0 instructions:   68000000 cycles:   52997236 heartbeat IPC: 1.28198 cumulative IPC: 1.28309 (Simulation time: 0 hr 2 min 47 sec) 
Heartbeat CPU  0 instructions:   69000002 cycles:   53776824 heartbeat IPC: 1.28273 cumulative IPC: 1.28308 (Simulation time: 0 hr 2 min 49 sec) 
Heartbeat CPU  0 instructions:   70000001 cycles:   54556567 heartbeat IPC: 1.28247 cumulative IPC: 1.28307 (Simulation time: 0 hr 2 min 52 sec) 
Heartbeat CPU  0 instructions:   71000003 cycles:   55336405 heartbeat IPC: 1.28232 cumulative IPC: 1.28306 (Simulation time: 0 hr 2 min 54 sec) 
Heartbeat CPU  0 instructions:   72000000 cycles:   56116389 heartbeat IPC: 1.28207 cumulative IPC: 1.28305 (Simulation time: 0 hr 2 min 57 sec) 
Heartbeat CPU  0 instructions:   73000000 cycles:   56897634 heartbeat IPC: 1.28001 cumulative IPC: 1.28301 (Simulation time: 0 hr 2 min 59 sec) 
Heartbeat CPU  0 instructions:   74000002 cycles:   57677960 heartbeat IPC: 1.28152 cumulative IPC: 1.28299 (Simulation time: 0 hr 3 min 1 sec) 
Heartbeat CPU  0 instructions:   75000000 cycles:   58459195 heartbeat IPC: 1.28002 cumulative IPC: 1.28295 (Simulation time: 0 hr 3 min 4 sec) 
Heartbeat CPU  0 instructions:   76000000 cycles:   59239833 heartbeat IPC: 1.28100 cumulative IPC: 1.28292 (Simulation time: 0 hr 3 min 6 sec) 
Heartbeat CPU  0 instructions:   77000003 cycles:   60019766 heartbeat IPC: 1.28217 cumulative IPC: 1.28291 (Simulation time: 0 hr 3 min 9 sec) 
Heartbeat CPU  0 instructions:   78000001 cycles:   60799733 heartbeat IPC: 1.28210 cumulative IPC: 1.28290 (Simulation time: 0 hr 3 min 11 sec) 
Heartbeat CPU  0 instructions:   79000001 cycles:   61580951 heartbeat IPC: 1.28005 cumulative IPC: 1.28286 (Simulation time: 0 hr 3 min 14 sec) 
Heartbeat CPU  0 instructions:   80000000 cycles:   62361208 heartbeat IPC: 1.28163 cumulative IPC: 1.28285 (Simulation time: 0 hr 3 min 16 sec) 
Heartbeat CPU  0 instructions:   81000001 cycles:   63140312 heartbeat IPC: 1.28353 cumulative IPC: 1.28286 (Simulation time: 0 hr 3 min 19 sec) 
Heartbeat CPU  0 instructions:   82000002 cycles:   63918903 heartbeat IPC: 1.28437 cumulative IPC: 1.28288 (Simulation time: 0 hr 3 min 21 sec) 
Heartbeat CPU  0 instructions:   83000000 cycles:   64700270 heartbeat IPC: 1.27981 cumulative IPC: 1.28284 (Simulation time: 0 hr 3 min 24 sec) 
Heartbeat CPU  0 instructions:   84000000 cycles:   65479360 heartbeat IPC: 1.28355 cumulative IPC: 1.28285 (Simulation time: 0 hr 3 min 26 sec) 
Heartbeat CPU  0 instructions:   85000002 cycles:   66258227 heartbeat IPC: 1.28392 cumulative IPC: 1.28286 (Simulation time: 0 hr 3 min 29 sec) 
Heartbeat CPU  0 instructions:   86000001 cycles:   67037392 heartbeat IPC: 1.28342 cumulative IPC: 1.28287 (Simulation time: 0 hr 3 min 31 sec) 
Heartbeat CPU  0 instructions:   87000001 cycles:   67816634 heartbeat IPC: 1.28330 cumulative IPC: 1.28287 (Simulation time: 0 hr 3 min 33 sec) 
Heartbeat CPU  0 instructions:   88000000 cycles:   68595944 heartbeat IPC: 1.28319 cumulative IPC: 1.28287 (Simulation time: 0 hr 3 min 36 sec) 
Heartbeat CPU  0 instructions:   89000001 cycles:   69375906 heartbeat IPC: 1.28211 cumulative IPC: 1.28287 (Simulation time: 0 hr 3 min 38 sec) 
Heartbeat CPU  0 instructions:   90000003 cycles:   70155973 heartbeat IPC: 1.28194 cumulative IPC: 1.28286 (Simulation time: 0 hr 3 min 41 sec) 
Heartbeat CPU  0 instructions:   91000001 cycles:   70936038 heartbeat IPC: 1.28194 cumulative IPC: 1.28285 (Simulation time: 0 hr 3 min 43 sec) 
Heartbeat CPU  0 instructions:   92000000 cycles:   71716552 heartbeat IPC: 1.28121 cumulative IPC: 1.28283 (Simulation time: 0 hr 3 min 46 sec) 
Heartbeat CPU  0 instructions:   93000002 cycles:   72496775 heartbeat IPC: 1.28169 cumulative IPC: 1.28282 (Simulation time: 0 hr 3 min 48 sec) 
Heartbeat CPU  0 instructions:   94000000 cycles:   73277119 heartbeat IPC: 1.28148 cumulative IPC: 1.28280 (Simulation time: 0 hr 3 min 51 sec) 
Heartbeat CPU  0 instructions:   95000001 cycles:   74056952 heartbeat IPC: 1.28233 cumulative IPC: 1.28280 (Simulation time: 0 hr 3 min 53 sec) 
Heartbeat CPU  0 instructions:   96000000 cycles:   74837396 heartbeat IPC: 1.28132 cumulative IPC: 1.28278 (Simulation time: 0 hr 3 min 56 sec) 
Heartbeat CPU  0 instructions:   97000002 cycles:   75618610 heartbeat IPC: 1.28006 cumulative IPC: 1.28275 (Simulation time: 0 hr 3 min 58 sec) 
Heartbeat CPU  0 instructions:   98000001 cycles:   76398155 heartbeat IPC: 1.28280 cumulative IPC: 1.28275 (Simulation time: 0 hr 4 min 1 sec) 
Heartbeat CPU  0 instructions:   99000003 cycles:   77177032 heartbeat IPC: 1.28390 cumulative IPC: 1.28277 (Simulation time: 0 hr 4 min 3 sec) 
Heartbeat CPU  0 instructions:  100000000 cycles:   77955967 heartbeat IPC: 1.28380 cumulative IPC: 1.28278 (Simulation time: 0 hr 4 min 5 sec) 

Warmup complete CPU  0 instructions:  100000001 cycles:   77955968 (Simulation time: 0 hr 4 min 5 sec) 

Heartbeat CPU  0 instructions:  101000003 cycles:   79859745 heartbeat IPC: 0.52527 cumulative IPC: 0.52527 (Simulation time: 0 hr 4 min 9 sec) 
Heartbeat CPU  0 instructions:  102000000 cycles:   81768757 heartbeat IPC: 0.52383 cumulative IPC: 0.52455 (Simulation time: 0 hr 4 min 12 sec) 
Heartbeat CPU  0 instructions:  103000002 cycles:   83669266 heartbeat IPC: 0.52618 cumulative IPC: 0.52509 (Simulation time: 0 hr 4 min 15 sec) 
Heartbeat CPU  0 instructions:  104000000 cycles:   85545751 heartbeat IPC: 0.53291 cumulative IPC: 0.52702 (Simulation time: 0 hr 4 min 18 sec) 
Heartbeat CPU  0 instructions:  105000003 cycles:   87485881 heartbeat IPC: 0.51543 cumulative IPC: 0.52466 (Simulation time: 0 hr 4 min 21 sec) 
Heartbeat CPU  0 instructions:  106000002 cycles:   89373976 heartbeat IPC: 0.52963 cumulative IPC: 0.52549 (Simulation time: 0 hr 4 min 25 sec) 
Heartbeat CPU  0 instructions:  107000000 cycles:   91261288 heartbeat IPC: 0.52985 cumulative IPC: 0.52611 (Simulation time: 0 hr 4 min 28 sec) 
Heartbeat CPU  0 instructions:  108000000 cycles:   93163348 heartbeat IPC: 0.52575 cumulative IPC: 0.52606 (Simulation time: 0 hr 4 min 31 sec) 
Heartbeat CPU  0 instructions:  109000003 cycles:   95076438 heartbeat IPC: 0.52272 cumulative IPC: 0.52569 (Simulation time: 0 hr 4 min 34 sec) 
Heartbeat CPU  0 instructions:  110000003 cycles:   96976046 heartbeat IPC: 0.52642 cumulative IPC: 0.52576 (Simulation time: 0 hr 4 min 37 sec) 
Heartbeat CPU  0 instructions:  111000000 cycles:   98835045 heartbeat IPC: 0.53792 cumulative IPC: 0.52684 (Simulation time: 0 hr 4 min 41 sec) 
Heartbeat CPU  0 instructions:  112000000 cycles:  100720594 heartbeat IPC: 0.53035 cumulative IPC: 0.52713 (Simulation time: 0 hr 4 min 44 sec) 
Heartbeat CPU  0 instructions:  113000000 cycles:  102624252 heartbeat IPC: 0.52530 cumulative IPC: 0.52699 (Simulation time: 0 hr 4 min 47 sec) 
Heartbeat CPU  0 instructions:  114000000 cycles:  104503406 heartbeat IPC: 0.53215 cumulative IPC: 0.52736 (Simulation time: 0 hr 4 min 50 sec) 
Heartbeat CPU  0 instructions:  115000000 cycles:  106393920 heartbeat IPC: 0.52896 cumulative IPC: 0.52746 (Simulation time: 0 hr 4 min 53 sec) 
Heartbeat CPU  0 instructions:  116000000 cycles:  108284684 heartbeat IPC: 0.52889 cumulative IPC: 0.52755 (Simulation time: 0 hr 4 min 57 sec) 
Heartbeat CPU  0 instructions:  117000000 cycles:  110174961 heartbeat IPC: 0.52902 cumulative IPC: 0.52764 (Simulation time: 0 hr 5 min 0 sec) 
Heartbeat CPU  0 instructions:  118000003 cycles:  112044480 heartbeat IPC: 0.53490 cumulative IPC: 0.52804 (Simulation time: 0 hr 5 min 3 sec) 
Heartbeat CPU  0 instructions:  119000001 cycles:  113917529 heartbeat IPC: 0.53389 cumulative IPC: 0.52834 (Simulation time: 0 hr 5 min 6 sec) 
Heartbeat CPU  0 instructions:  120000000 cycles:  115817663 heartbeat IPC: 0.52628 cumulative IPC: 0.52824 (Simulation time: 0 hr 5 min 9 sec) 
Heartbeat CPU  0 instructions:  121000000 cycles:  117687153 heartbeat IPC: 0.53491 cumulative IPC: 0.52855 (Simulation time: 0 hr 5 min 12 sec) 
Heartbeat CPU  0 instructions:  122000002 cycles:  119582668 heartbeat IPC: 0.52756 cumulative IPC: 0.52851 (Simulation time: 0 hr 5 min 16 sec) 
Heartbeat CPU  0 instructions:  123000000 cycles:  121478427 heartbeat IPC: 0.52749 cumulative IPC: 0.52846 (Simulation time: 0 hr 5 min 19 sec) 
Heartbeat CPU  0 instructions:  124000000 cycles:  123403678 heartbeat IPC: 0.51941 cumulative IPC: 0.52808 (Simulation time: 0 hr 5 min 22 sec) 
Heartbeat CPU  0 instructions:  125000002 cycles:  125304239 heartbeat IPC: 0.52616 cumulative IPC: 0.52800 (Simulation time: 0 hr 5 min 25 sec) 
Heartbeat CPU  0 instructions:  126000000 cycles:  127188695 heartbeat IPC: 0.53066 cumulative IPC: 0.52810 (Simulation time: 0 hr 5 min 28 sec) 
Heartbeat CPU  0 instructions:  127000002 cycles:  129093986 heartbeat IPC: 0.52486 cumulative IPC: 0.52798 (Simulation time: 0 hr 5 min 32 sec) 
Heartbeat CPU  0 instructions:  128000000 cycles:  130990102 heartbeat IPC: 0.52739 cumulative IPC: 0.52796 (Simulation time: 0 hr 5 min 35 sec) 
Heartbeat CPU  0 instructions:  129000001 cycles:  132876394 heartbeat IPC: 0.53014 cumulative IPC: 0.52804 (Simulation time: 0 hr 5 min 38 sec) 
Heartbeat CPU  0 instructions:  130000003 cycles:  134812577 heartbeat IPC: 0.51648 cumulative IPC: 0.52764 (Simulation time: 0 hr 5 min 41 sec) 
Heartbeat CPU  0 instructions:  131000003 cycles:  136733051 heartbeat IPC: 0.52070 cumulative IPC: 0.52742 (Simulation time: 0 hr 5 min 44 sec) 
Heartbeat CPU  0 instructions:  132000000 cycles:  138625274 heartbeat IPC: 0.52848 cumulative IPC: 0.52745 (Simulation time: 0 hr 5 min 48 sec) 
Heartbeat CPU  0 instructions:  133000000 cycles:  140529703 heartbeat IPC: 0.52509 cumulative IPC: 0.52738 (Simulation time: 0 hr 5 min 51 sec) 
Heartbeat CPU  0 instructions:  134000002 cycles:  142512804 heartbeat IPC: 0.50426 cumulative IPC: 0.52667 (Simulation time: 0 hr 5 min 54 sec) 
Heartbeat CPU  0 instructions:  135000002 cycles:  144511395 heartbeat IPC: 0.50035 cumulative IPC: 0.52588 (Simulation time: 0 hr 5 min 57 sec) 
Heartbeat CPU  0 instructions:  136000000 cycles:  146506850 heartbeat IPC: 0.50114 cumulative IPC: 0.52516 (Simulation time: 0 hr 6 min 0 sec) 
Heartbeat CPU  0 instructions:  137000002 cycles:  148443966 heartbeat IPC: 0.51623 cumulative IPC: 0.52491 (Simulation time: 0 hr 6 min 3 sec) 
Heartbeat CPU  0 instructions:  138000003 cycles:  150356871 heartbeat IPC: 0.52277 cumulative IPC: 0.52486 (Simulation time: 0 hr 6 min 6 sec) 
Heartbeat CPU  0 instructions:  139000001 cycles:  152255515 heartbeat IPC: 0.52669 cumulative IPC: 0.52490 (Simulation time: 0 hr 6 min 9 sec) 
Heartbeat CPU  0 instructions:  140000000 cycles:  154083589 heartbeat IPC: 0.54702 cumulative IPC: 0.52543 (Simulation time: 0 hr 6 min 12 sec) 
Heartbeat CPU  0 instructions:  141000003 cycles:  155882573 heartbeat IPC: 0.55587 cumulative IPC: 0.52614 (Simulation time: 0 hr 6 min 14 sec) 
Heartbeat CPU  0 instructions:  142000003 cycles:  157702562 heartbeat IPC: 0.54945 cumulative IPC: 0.52667 (Simulation time: 0 hr 6 min 17 sec) 
Heartbeat CPU  0 instructions:  143000000 cycles:  159601651 heartbeat IPC: 0.52657 cumulative IPC: 0.52667 (Simulation time: 0 hr 6 min 20 sec) 
Heartbeat CPU  0 instructions:  144000000 cycles:  161484889 heartbeat IPC: 0.53100 cumulative IPC: 0.52676 (Simulation time: 0 hr 6 min 24 sec) 
Heartbeat CPU  0 instructions:  145000002 cycles:  163335409 heartbeat IPC: 0.54039 cumulative IPC: 0.52706 (Simulation time: 0 hr 6 min 27 sec) 
Heartbeat CPU  0 instructions:  146000000 cycles:  165202702 heartbeat IPC: 0.53553 cumulative IPC: 0.52724 (Simulation time: 0 hr 6 min 30 sec) 
Heartbeat CPU  0 instructions:  147000002 cycles:  167063314 heartbeat IPC: 0.53746 cumulative IPC: 0.52745 (Simulation time: 0 hr 6 min 33 sec) 
Heartbeat CPU  0 instructions:  148000000 cycles:  168836848 heartbeat IPC: 0.56384 cumulative IPC: 0.52816 (Simulation time: 0 hr 6 min 36 sec) 
Heartbeat CPU  0 instructions:  149000001 cycles:  170599131 heartbeat IPC: 0.56745 cumulative IPC: 0.52891 (Simulation time: 0 hr 6 min 39 sec) 
Heartbeat CPU  0 instructions:  150000003 cycles:  172411573 heartbeat IPC: 0.55174 cumulative IPC: 0.52935 (Simulation time: 0 hr 6 min 42 sec) 
Heartbeat CPU  0 instructions:  151000001 cycles:  174258474 heartbeat IPC: 0.54145 cumulative IPC: 0.52958 (Simulation time: 0 hr 6 min 45 sec) 
Heartbeat CPU  0 instructions:  152000000 cycles:  176158540 heartbeat IPC: 0.52630 cumulative IPC: 0.52952 (Simulation time: 0 hr 6 min 49 sec) 
Heartbeat CPU  0 instructions:  153000002 cycles:  178016368 heartbeat IPC: 0.53826 cumulative IPC: 0.52968 (Simulation time: 0 hr 6 min 52 sec) 
Heartbeat CPU  0 instructions:  154000000 cycles:  179898566 heartbeat IPC: 0.53129 cumulative IPC: 0.52971 (Simulation time: 0 hr 6 min 55 sec) 
Heartbeat CPU  0 instructions:  155000000 cycles:  181729635 heartbeat IPC: 0.54613 cumulative IPC: 0.53000 (Simulation time: 0 hr 6 min 58 sec) 
Heartbeat CPU  0 instructions:  156000000 cycles:  183580857 heartbeat IPC: 0.54018 cumulative IPC: 0.53018 (Simulation time: 0 hr 7 min 1 sec) 
Heartbeat CPU  0 instructions:  157000001 cycles:  185462290 heartbeat IPC: 0.53151 cumulative IPC: 0.53020 (Simulation time: 0 hr 7 min 5 sec) 
Heartbeat CPU  0 instructions:  158000003 cycles:  187366476 heartbeat IPC: 0.52516 cumulative IPC: 0.53011 (Simulation time: 0 hr 7 min 8 sec) 
Heartbeat CPU  0 instructions:  159000000 cycles:  189302192 heartbeat IPC: 0.51660 cumulative IPC: 0.52988 (Simulation time: 0 hr 7 min 11 sec) 
Heartbeat CPU  0 instructions:  160000000 cycles:  191201387 heartbeat IPC: 0.52654 cumulative IPC: 0.52982 (Simulation time: 0 hr 7 min 14 sec) 
Heartbeat CPU  0 instructions:  161000003 cycles:  193127758 heartbeat IPC: 0.51911 cumulative IPC: 0.52964 (Simulation time: 0 hr 7 min 17 sec) 
Heartbeat CPU  0 instructions:  162000003 cycles:  195055167 heartbeat IPC: 0.51883 cumulative IPC: 0.52947 (Simulation time: 0 hr 7 min 21 sec) 
Heartbeat CPU  0 instructions:  163000001 cycles:  196969572 heartbeat IPC: 0.52235 cumulative IPC: 0.52935 (Simulation time: 0 hr 7 min 24 sec) 
Heartbeat CPU  0 instructions:  164000000 cycles:  198895831 heartbeat IPC: 0.51914 cumulative IPC: 0.52919 (Simulation time: 0 hr 7 min 27 sec) 
Heartbeat CPU  0 instructions:  165000000 cycles:  200816941 heartbeat IPC: 0.52053 cumulative IPC: 0.52905 (Simulation time: 0 hr 7 min 30 sec) 
Heartbeat CPU  0 instructions:  166000000 cycles:  202722569 heartbeat IPC: 0.52476 cumulative IPC: 0.52899 (Simulation time: 0 hr 7 min 34 sec) 
Heartbeat CPU  0 instructions:  167000002 cycles:  204636819 heartbeat IPC: 0.52240 cumulative IPC: 0.52889 (Simulation time: 0 hr 7 min 37 sec) 
Heartbeat CPU  0 instructions:  168000000 cycles:  206549570 heartbeat IPC: 0.52281 cumulative IPC: 0.52880 (Simulation time: 0 hr 7 min 40 sec) 
Heartbeat CPU  0 instructions:  169000000 cycles:  208416639 heartbeat IPC: 0.53560 cumulative IPC: 0.52890 (Simulation time: 0 hr 7 min 43 sec) 
Heartbeat CPU  0 instructions:  170000003 cycles:  210371205 heartbeat IPC: 0.51162 cumulative IPC: 0.52864 (Simulation time: 0 hr 7 min 46 sec) 
Heartbeat CPU  0 instructions:  171000002 cycles:  212261982 heartbeat IPC: 0.52888 cumulative IPC: 0.52864 (Simulation time: 0 hr 7 min 50 sec) 
Heartbeat CPU  0 instructions:  172000000 cycles:  214181969 heartbeat IPC: 0.52084 cumulative IPC: 0.52853 (Simulation time: 0 hr 7 min 53 sec) 
Heartbeat CPU  0 instructions:  173000002 cycles:  216080827 heartbeat IPC: 0.52663 cumulative IPC: 0.52851 (Simulation time: 0 hr 7 min 56 sec) 
Heartbeat CPU  0 instructions:  174000000 cycles:  217954121 heartbeat IPC: 0.53382 cumulative IPC: 0.52858 (Simulation time: 0 hr 7 min 59 sec) 
Heartbeat CPU  0 instructions:  175000001 cycles:  219826605 heartbeat IPC: 0.53405 cumulative IPC: 0.52865 (Simulation time: 0 hr 8 min 2 sec) 
Heartbeat CPU  0 instructions:  176000000 cycles:  221696271 heartbeat IPC: 0.53485 cumulative IPC: 0.52873 (Simulation time: 0 hr 8 min 6 sec) 
Heartbeat CPU  0 instructions:  177000001 cycles:  223609921 heartbeat IPC: 0.52256 cumulative IPC: 0.52865 (Simulation time: 0 hr 8 min 9 sec) 
Heartbeat CPU  0 instructions:  178000000 cycles:  225504103 heartbeat IPC: 0.52793 cumulative IPC: 0.52864 (Simulation time: 0 hr 8 min 12 sec) 
Heartbeat CPU  0 instructions:  179000002 cycles:  227412694 heartbeat IPC: 0.52395 cumulative IPC: 0.52858 (Simulation time: 0 hr 8 min 15 sec) 
Heartbeat CPU  0 instructions:  180000000 cycles:  229305819 heartbeat IPC: 0.52823 cumulative IPC: 0.52858 (Simulation time: 0 hr 8 min 18 sec) 
Heartbeat CPU  0 instructions:  181000002 cycles:  231211176 heartbeat IPC: 0.52484 cumulative IPC: 0.52853 (Simulation time: 0 hr 8 min 21 sec) 
Heartbeat CPU  0 instructions:  182000003 cycles:  233102700 heartbeat IPC: 0.52867 cumulative IPC: 0.52853 (Simulation time: 0 hr 8 min 25 sec) 
Heartbeat CPU  0 instructions:  183000001 cycles:  234999879 heartbeat IPC: 0.52710 cumulative IPC: 0.52851 (Simulation time: 0 hr 8 min 28 sec) 
Heartbeat CPU  0 instructions:  184000000 cycles:  236917083 heartbeat IPC: 0.52159 cumulative IPC: 0.52843 (Simulation time: 0 hr 8 min 31 sec) 
Heartbeat CPU  0 instructions:  185000003 cycles:  238856755 heartbeat IPC: 0.51555 cumulative IPC: 0.52828 (Simulation time: 0 hr 8 min 34 sec) 
Heartbeat CPU  0 instructions:  186000000 cycles:  240743525 heartbeat IPC: 0.53000 cumulative IPC: 0.52830 (Simulation time: 0 hr 8 min 38 sec) 
Heartbeat CPU  0 instructions:  187000000 cycles:  242659352 heartbeat IPC: 0.52197 cumulative IPC: 0.52822 (Simulation time: 0 hr 8 min 41 sec) 
Heartbeat CPU  0 instructions:  188000000 cycles:  244588278 heartbeat IPC: 0.51842 cumulative IPC: 0.52811 (Simulation time: 0 hr 8 min 44 sec) 
Heartbeat CPU  0 instructions:  189000001 cycles:  246526385 heartbeat IPC: 0.51597 cumulative IPC: 0.52797 (Simulation time: 0 hr 8 min 47 sec) 
Heartbeat CPU  0 instructions:  190000003 cycles:  248438302 heartbeat IPC: 0.52304 cumulative IPC: 0.52791 (Simulation time: 0 hr 8 min 50 sec) 
Heartbeat CPU  0 instructions:  191000002 cycles:  250311637 heartbeat IPC: 0.53381 cumulative IPC: 0.52798 (Simulation time: 0 hr 8 min 53 sec) 
Heartbeat CPU  0 instructions:  192000000 cycles:  252261603 heartbeat IPC: 0.51283 cumulative IPC: 0.52781 (Simulation time: 0 hr 8 min 57 sec) 
Heartbeat CPU  0 instructions:  193000002 cycles:  254156395 heartbeat IPC: 0.52776 cumulative IPC: 0.52781 (Simulation time: 0 hr 9 min 0 sec) 
Heartbeat CPU  0 instructions:  194000003 cycles:  256061214 heartbeat IPC: 0.52498 cumulative IPC: 0.52778 (Simulation time: 0 hr 9 min 3 sec) 
Heartbeat CPU  0 instructions:  195000001 cycles:  257961375 heartbeat IPC: 0.52627 cumulative IPC: 0.52776 (Simulation time: 0 hr 9 min 6 sec) 
Heartbeat CPU  0 instructions:  196000000 cycles:  259855869 heartbeat IPC: 0.52784 cumulative IPC: 0.52776 (Simulation time: 0 hr 9 min 10 sec) 
Heartbeat CPU  0 instructions:  197000001 cycles:  261770910 heartbeat IPC: 0.52218 cumulative IPC: 0.52770 (Simulation time: 0 hr 9 min 13 sec) 
Heartbeat CPU  0 instructions:  198000000 cycles:  263662422 heartbeat IPC: 0.52868 cumulative IPC: 0.52771 (Simulation time: 0 hr 9 min 16 sec) 
Heartbeat CPU  0 instructions:  199000002 cycles:  265576475 heartbeat IPC: 0.52245 cumulative IPC: 0.52766 (Simulation time: 0 hr 9 min 19 sec) 
Heartbeat CPU  0 instructions:  200000000 cycles:  267480014 heartbeat IPC: 0.52534 cumulative IPC: 0.52764 (Simulation time: 0 hr 9 min 22 sec) 
Heartbeat CPU  0 instructions:  201000001 cycles:  269391744 heartbeat IPC: 0.52309 cumulative IPC: 0.52759 (Simulation time: 0 hr 9 min 25 sec) 
Heartbeat CPU  0 instructions:  202000003 cycles:  271265741 heartbeat IPC: 0.53362 cumulative IPC: 0.52765 (Simulation time: 0 hr 9 min 29 sec) 
Heartbeat CPU  0 instructions:  203000001 cycles:  273144437 heartbeat IPC: 0.53228 cumulative IPC: 0.52770 (Simulation time: 0 hr 9 min 32 sec) 
Heartbeat CPU  0 instructions:  204000000 cycles:  275018347 heartbeat IPC: 0.53364 cumulative IPC: 0.52775 (Simulation time: 0 hr 9 min 35 sec) 
Heartbeat CPU  0 instructions:  205000001 cycles:  276907040 heartbeat IPC: 0.52947 cumulative IPC: 0.52777 (Simulation time: 0 hr 9 min 38 sec) 
Heartbeat CPU  0 instructions:  206000000 cycles:  278809609 heartbeat IPC: 0.52560 cumulative IPC: 0.52775 (Simulation time: 0 hr 9 min 41 sec) 
Heartbeat CPU  0 instructions:  207000001 cycles:  280736968 heartbeat IPC: 0.51885 cumulative IPC: 0.52766 (Simulation time: 0 hr 9 min 45 sec) 
Heartbeat CPU  0 instructions:  208000000 cycles:  282640977 heartbeat IPC: 0.52521 cumulative IPC: 0.52764 (Simulation time: 0 hr 9 min 48 sec) 
Heartbeat CPU  0 instructions:  209000001 cycles:  284519566 heartbeat IPC: 0.53231 cumulative IPC: 0.52768 (Simulation time: 0 hr 9 min 51 sec) 
Heartbeat CPU  0 instructions:  210000000 cycles:  286434238 heartbeat IPC: 0.52228 cumulative IPC: 0.52763 (Simulation time: 0 hr 9 min 54 sec) 
Heartbeat CPU  0 instructions:  211000002 cycles:  288342885 heartbeat IPC: 0.52393 cumulative IPC: 0.52760 (Simulation time: 0 hr 9 min 57 sec) 
Heartbeat CPU  0 instructions:  212000000 cycles:  290224765 heartbeat IPC: 0.53138 cumulative IPC: 0.52763 (Simulation time: 0 hr 10 min 1 sec) 
Heartbeat CPU  0 instructions:  213000000 cycles:  292137998 heartbeat IPC: 0.52268 cumulative IPC: 0.52759 (Simulation time: 0 hr 10 min 4 sec) 
Heartbeat CPU  0 instructions:  214000003 cycles:  294071444 heartbeat IPC: 0.51721 cumulative IPC: 0.52750 (Simulation time: 0 hr 10 min 7 sec) 
Heartbeat CPU  0 instructions:  215000001 cycles:  295975747 heartbeat IPC: 0.52513 cumulative IPC: 0.52748 (Simulation time: 0 hr 10 min 10 sec) 
Heartbeat CPU  0 instructions:  216000000 cycles:  297880404 heartbeat IPC: 0.52503 cumulative IPC: 0.52745 (Simulation time: 0 hr 10 min 13 sec) 
Heartbeat CPU  0 instructions:  217000003 cycles:  299778670 heartbeat IPC: 0.52680 cumulative IPC: 0.52745 (Simulation time: 0 hr 10 min 17 sec) 
Heartbeat CPU  0 instructions:  218000002 cycles:  301722406 heartbeat IPC: 0.51447 cumulative IPC: 0.52734 (Simulation time: 0 hr 10 min 20 sec) 
Heartbeat CPU  0 instructions:  219000002 cycles:  303607569 heartbeat IPC: 0.53046 cumulative IPC: 0.52736 (Simulation time: 0 hr 10 min 23 sec) 
Heartbeat CPU  0 instructions:  220000000 cycles:  305516952 heartbeat IPC: 0.52373 cumulative IPC: 0.52733 (Simulation time: 0 hr 10 min 26 sec) 
Heartbeat CPU  0 instructions:  221000001 cycles:  307426144 heartbeat IPC: 0.52378 cumulative IPC: 0.52730 (Simulation time: 0 hr 10 min 30 sec) 
Heartbeat CPU  0 instructions:  222000003 cycles:  309326239 heartbeat IPC: 0.52629 cumulative IPC: 0.52729 (Simulation time: 0 hr 10 min 33 sec) 
Heartbeat CPU  0 instructions:  223000001 cycles:  311230909 heartbeat IPC: 0.52502 cumulative IPC: 0.52727 (Simulation time: 0 hr 10 min 36 sec) 
Heartbeat CPU  0 instructions:  224000000 cycles:  313154698 heartbeat IPC: 0.51981 cumulative IPC: 0.52721 (Simulation time: 0 hr 10 min 39 sec) 
Heartbeat CPU  0 instructions:  225000002 cycles:  315068106 heartbeat IPC: 0.52263 cumulative IPC: 0.52718 (Simulation time: 0 hr 10 min 42 sec) 
Heartbeat CPU  0 instructions:  226000000 cycles:  316972173 heartbeat IPC: 0.52519 cumulative IPC: 0.52716 (Simulation time: 0 hr 10 min 46 sec) 
Heartbeat CPU  0 instructions:  227000001 cycles:  318897178 heartbeat IPC: 0.51948 cumulative IPC: 0.52710 (Simulation time: 0 hr 10 min 49 sec) 
Heartbeat CPU  0 instructions:  228000000 cycles:  320796303 heartbeat IPC: 0.52656 cumulative IPC: 0.52710 (Simulation time: 0 hr 10 min 52 sec) 
Heartbeat CPU  0 instructions:  229000001 cycles:  322743849 heartbeat IPC: 0.51347 cumulative IPC: 0.52699 (Simulation time: 0 hr 10 min 55 sec) 
Heartbeat CPU  0 instructions:  230000002 cycles:  324641403 heartbeat IPC: 0.52699 cumulative IPC: 0.52699 (Simulation time: 0 hr 10 min 58 sec) 
Heartbeat CPU  0 instructions:  231000003 cycles:  326540684 heartbeat IPC: 0.52652 cumulative IPC: 0.52698 (Simulation time: 0 hr 11 min 2 sec) 
Heartbeat CPU  0 instructions:  232000000 cycles:  328467093 heartbeat IPC: 0.51910 cumulative IPC: 0.52692 (Simulation time: 0 hr 11 min 5 sec) 
Heartbeat CPU  0 instructions:  233000001 cycles:  330404405 heartbeat IPC: 0.51618 cumulative IPC: 0.52684 (Simulation time: 0 hr 11 min 8 sec) 
Heartbeat CPU  0 instructions:  234000003 cycles:  332308798 heartbeat IPC: 0.52510 cumulative IPC: 0.52683 (Simulation time: 0 hr 11 min 11 sec) 
Heartbeat CPU  0 instructions:  235000001 cycles:  334193938 heartbeat IPC: 0.53046 cumulative IPC: 0.52685 (Simulation time: 0 hr 11 min 14 sec) 
Heartbeat CPU  0 instructions:  236000000 cycles:  336103846 heartbeat IPC: 0.52358 cumulative IPC: 0.52683 (Simulation time: 0 hr 11 min 18 sec) 
Heartbeat CPU  0 instructions:  237000001 cycles:  338001814 heartbeat IPC: 0.52688 cumulative IPC: 0.52683 (Simulation time: 0 hr 11 min 21 sec) 
Heartbeat CPU  0 instructions:  238000002 cycles:  339888923 heartbeat IPC: 0.52991 cumulative IPC: 0.52685 (Simulation time: 0 hr 11 min 24 sec) 
Heartbeat CPU  0 instructions:  239000002 cycles:  341770575 heartbeat IPC: 0.53145 cumulative IPC: 0.52689 (Simulation time: 0 hr 11 min 27 sec) 
Heartbeat CPU  0 instructions:  240000000 cycles:  343703660 heartbeat IPC: 0.51731 cumulative IPC: 0.52682 (Simulation time: 0 hr 11 min 30 sec) 
Heartbeat CPU  0 instructions:  241000001 cycles:  345595182 heartbeat IPC: 0.52868 cumulative IPC: 0.52683 (Simulation time: 0 hr 11 min 34 sec) 
Heartbeat CPU  0 instructions:  242000000 cycles:  347497610 heartbeat IPC: 0.52564 cumulative IPC: 0.52682 (Simulation time: 0 hr 11 min 37 sec) 
Heartbeat CPU  0 instructions:  243000002 cycles:  349390222 heartbeat IPC: 0.52837 cumulative IPC: 0.52683 (Simulation time: 0 hr 11 min 40 sec) 
Heartbeat CPU  0 instructions:  244000000 cycles:  351317953 heartbeat IPC: 0.51874 cumulative IPC: 0.52677 (Simulation time: 0 hr 11 min 43 sec) 
Heartbeat CPU  0 instructions:  245000000 cycles:  353202774 heartbeat IPC: 0.53055 cumulative IPC: 0.52680 (Simulation time: 0 hr 11 min 46 sec) 
Heartbeat CPU  0 instructions:  246000003 cycles:  355123834 heartbeat IPC: 0.52055 cumulative IPC: 0.52676 (Simulation time: 0 hr 11 min 50 sec) 
Heartbeat CPU  0 instructions:  247000001 cycles:  357017714 heartbeat IPC: 0.52802 cumulative IPC: 0.52677 (Simulation time: 0 hr 11 min 53 sec) 
Heartbeat CPU  0 instructions:  248000000 cycles:  358890118 heartbeat IPC: 0.53407 cumulative IPC: 0.52681 (Simulation time: 0 hr 11 min 56 sec) 
Heartbeat CPU  0 instructions:  249000001 cycles:  360805573 heartbeat IPC: 0.52207 cumulative IPC: 0.52678 (Simulation time: 0 hr 11 min 59 sec) 
Heartbeat CPU  0 instructions:  250000001 cycles:  362709109 heartbeat IPC: 0.52534 cumulative IPC: 0.52677 (Simulation time: 0 hr 12 min 2 sec) 
Heartbeat CPU  0 instructions:  251000001 cycles:  365057696 heartbeat IPC: 0.42579 cumulative IPC: 0.52595 (Simulation time: 0 hr 12 min 5 sec) 
Heartbeat CPU  0 instructions:  252000000 cycles:  366779960 heartbeat IPC: 0.58063 cumulative IPC: 0.52627 (Simulation time: 0 hr 12 min 8 sec) 
Heartbeat CPU  0 instructions:  253000000 cycles:  368342956 heartbeat IPC: 0.63980 cumulative IPC: 0.52688 (Simulation time: 0 hr 12 min 10 sec) 
Heartbeat CPU  0 instructions:  254000003 cycles:  369803755 heartbeat IPC: 0.68456 cumulative IPC: 0.52767 (Simulation time: 0 hr 12 min 13 sec) 
Heartbeat CPU  0 instructions:  255000002 cycles:  371262840 heartbeat IPC: 0.68536 cumulative IPC: 0.52846 (Simulation time: 0 hr 12 min 15 sec) 
Heartbeat CPU  0 instructions:  256000000 cycles:  376093643 heartbeat IPC: 0.20700 cumulative IPC: 0.52325 (Simulation time: 0 hr 12 min 18 sec) 
Heartbeat CPU  0 instructions:  257000000 cycles:  377810324 heartbeat IPC: 0.58252 cumulative IPC: 0.52359 (Simulation time: 0 hr 12 min 21 sec) 
Heartbeat CPU  0 instructions:  258000001 cycles:  379363862 heartbeat IPC: 0.64369 cumulative IPC: 0.52421 (Simulation time: 0 hr 12 min 23 sec) 
Heartbeat CPU  0 instructions:  259000002 cycles:  380825876 heartbeat IPC: 0.68399 cumulative IPC: 0.52498 (Simulation time: 0 hr 12 min 26 sec) 
Heartbeat CPU  0 instructions:  260000000 cycles:  382286908 heartbeat IPC: 0.68445 cumulative IPC: 0.52574 (Simulation time: 0 hr 12 min 28 sec) 
Heartbeat CPU  0 instructions:  261000000 cycles:  386473236 heartbeat IPC: 0.23887 cumulative IPC: 0.52185 (Simulation time: 0 hr 12 min 31 sec) 
Heartbeat CPU  0 instructions:  262000003 cycles:  388193604 heartbeat IPC: 0.58127 cumulative IPC: 0.52218 (Simulation time: 0 hr 12 min 34 sec) 
Heartbeat CPU  0 instructions:  263000001 cycles:  389759944 heartbeat IPC: 0.63843 cumulative IPC: 0.52276 (Simulation time: 0 hr 12 min 36 sec) 
Heartbeat CPU  0 instructions:  264000000 cycles:  391222827 heartbeat IPC: 0.68358 cumulative IPC: 0.52352 (Simulation time: 0 hr 12 min 39 sec) 
Heartbeat CPU  0 instructions:  265000001 cycles:  392683480 heartbeat IPC: 0.68463 cumulative IPC: 0.52426 (Simulation time: 0 hr 12 min 41 sec) 
Heartbeat CPU  0 instructions:  266000001 cycles:  396888663 heartbeat IPC: 0.23780 cumulative IPC: 0.52049 (Simulation time: 0 hr 12 min 44 sec) 
Heartbeat CPU  0 instructions:  267000003 cycles:  398578630 heartbeat IPC: 0.59173 cumulative IPC: 0.52086 (Simulation time: 0 hr 12 min 47 sec) 
Heartbeat CPU  0 instructions:  268000000 cycles:  400146729 heartbeat IPC: 0.63771 cumulative IPC: 0.52143 (Simulation time: 0 hr 12 min 49 sec) 
Heartbeat CPU  0 instructions:  269000002 cycles:  401606793 heartbeat IPC: 0.68490 cumulative IPC: 0.52217 (Simulation time: 0 hr 12 min 51 sec) 
Heartbeat CPU  0 instructions:  270000003 cycles:  403065399 heartbeat IPC: 0.68559 cumulative IPC: 0.52290 (Simulation time: 0 hr 12 min 54 sec) 
Heartbeat CPU  0 instructions:  271000000 cycles:  407984950 heartbeat IPC: 0.20327 cumulative IPC: 0.51814 (Simulation time: 0 hr 12 min 57 sec) 
Heartbeat CPU  0 instructions:  272000000 cycles:  409681395 heartbeat IPC: 0.58947 cumulative IPC: 0.51850 (Simulation time: 0 hr 13 min 0 sec) 
Heartbeat CPU  0 instructions:  273000000 cycles:  411253651 heartbeat IPC: 0.63603 cumulative IPC: 0.51906 (Simulation time: 0 hr 13 min 2 sec) 
Heartbeat CPU  0 instructions:  274000001 cycles:  412714347 heartbeat IPC: 0.68461 cumulative IPC: 0.51978 (Simulation time: 0 hr 13 min 4 sec) 
Heartbeat CPU  0 instructions:  275000000 cycles:  414173354 heartbeat IPC: 0.68540 cumulative IPC: 0.52050 (Simulation time: 0 hr 13 min 7 sec) 
Heartbeat CPU  0 instructions:  276000000 cycles:  416184148 heartbeat IPC: 0.49732 cumulative IPC: 0.52036 (Simulation time: 0 hr 13 min 9 sec) 
Heartbeat CPU  0 instructions:  277000000 cycles:  417844637 heartbeat IPC: 0.60223 cumulative IPC: 0.52076 (Simulation time: 0 hr 13 min 12 sec) 
Heartbeat CPU  0 instructions:  278000000 cycles:  419416534 heartbeat IPC: 0.63617 cumulative IPC: 0.52129 (Simulation time: 0 hr 13 min 14 sec) 
Heartbeat CPU  0 instructions:  279000000 cycles:  420874051 heartbeat IPC: 0.68610 cumulative IPC: 0.52199 (Simulation time: 0 hr 13 min 16 sec) 
Heartbeat CPU  0 instructions:  280000000 cycles:  422330636 heartbeat IPC: 0.68654 cumulative IPC: 0.52269 (Simulation time: 0 hr 13 min 19 sec) 
Heartbeat CPU  0 instructions:  281000000 cycles:  424361449 heartbeat IPC: 0.49241 cumulative IPC: 0.52251 (Simulation time: 0 hr 13 min 21 sec) 
Heartbeat CPU  0 instructions:  282000000 cycles:  426028797 heartbeat IPC: 0.59975 cumulative IPC: 0.52288 (Simulation time: 0 hr 13 min 24 sec) 
Heartbeat CPU  0 instructions:  283000001 cycles:  427604153 heartbeat IPC: 0.63478 cumulative IPC: 0.52338 (Simulation time: 0 hr 13 min 26 sec) 
Heartbeat CPU  0 instructions:  284000000 cycles:  429060846 heartbeat IPC: 0.68649 cumulative IPC: 0.52406 (Simulation time: 0 hr 13 min 28 sec) 
Heartbeat CPU  0 instructions:  285000000 cycles:  430517663 heartbeat IPC: 0.68643 cumulative IPC: 0.52473 (Simulation time: 0 hr 13 min 31 sec) 
Heartbeat CPU  0 instructions:  286000002 cycles:  432434633 heartbeat IPC: 0.52166 cumulative IPC: 0.52471 (Simulation time: 0 hr 13 min 33 sec) 
Heartbeat CPU  0 instructions:  287000000 cycles:  434108678 heartbeat IPC: 0.59735 cumulative IPC: 0.52506 (Simulation time: 0 hr 13 min 36 sec) 
Heartbeat CPU  0 instructions:  288000000 cycles:  435674637 heartbeat IPC: 0.63859 cumulative IPC: 0.52555 (Simulation time: 0 hr 13 min 38 sec) 
Heartbeat CPU  0 instructions:  289000001 cycles:  437132305 heartbeat IPC: 0.68603 cumulative IPC: 0.52620 (Simulation time: 0 hr 13 min 40 sec) 
Heartbeat CPU  0 instructions:  290000001 cycles:  438589846 heartbeat IPC: 0.68609 cumulative IPC: 0.52685 (Simulation time: 0 hr 13 min 43 sec) 
Heartbeat CPU  0 instructions:  291000001 cycles:  440537107 heartbeat IPC: 0.51354 cumulative IPC: 0.52678 (Simulation time: 0 hr 13 min 45 sec) 
Heartbeat CPU  0 instructions:  292000000 cycles:  442173639 heartbeat IPC: 0.61105 cumulative IPC: 0.52716 (Simulation time: 0 hr 13 min 47 sec) 
Heartbeat CPU  0 instructions:  293000001 cycles:  443892290 heartbeat IPC: 0.58185 cumulative IPC: 0.52741 (Simulation time: 0 hr 13 min 50 sec) 
Heartbeat CPU  0 instructions:  294000003 cycles:  445610883 heartbeat IPC: 0.58187 cumulative IPC: 0.52767 (Simulation time: 0 hr 13 min 53 sec) 
Heartbeat CPU  0 instructions:  295000003 cycles:  447616740 heartbeat IPC: 0.49854 cumulative IPC: 0.52751 (Simulation time: 0 hr 13 min 55 sec) 
Heartbeat CPU  0 instructions:  296000000 cycles:  449201377 heartbeat IPC: 0.63106 cumulative IPC: 0.52795 (Simulation time: 0 hr 13 min 57 sec) 
Heartbeat CPU  0 instructions:  297000001 cycles:  450921762 heartbeat IPC: 0.58127 cumulative IPC: 0.52820 (Simulation time: 0 hr 14 min 0 sec) 
Heartbeat CPU  0 instructions:  298000002 cycles:  452641996 heartbeat IPC: 0.58132 cumulative IPC: 0.52844 (Simulation time: 0 hr 14 min 3 sec) 
Heartbeat CPU  0 instructions:  299000002 cycles:  454504811 heartbeat IPC: 0.53682 cumulative IPC: 0.52848 (Simulation time: 0 hr 14 min 5 sec) 
Heartbeat CPU  0 instructions:  300000000 cycles:  456149155 heartbeat IPC: 0.60814 cumulative IPC: 0.52883 (Simulation time: 0 hr 14 min 7 sec) 
Heartbeat CPU  0 instructions:  301000000 cycles:  457605757 heartbeat IPC: 0.68653 cumulative IPC: 0.52944 (Simulation time: 0 hr 14 min 10 sec) 
Heartbeat CPU  0 instructions:  302000001 cycles:  459062250 heartbeat IPC: 0.68658 cumulative IPC: 0.53004 (Simulation time: 0 hr 14 min 12 sec) 
Heartbeat CPU  0 instructions:  303000000 cycles:  460518828 heartbeat IPC: 0.68654 cumulative IPC: 0.53063 (Simulation time: 0 hr 14 min 14 sec) 
Heartbeat CPU  0 instructions:  304000000 cycles:  461975267 heartbeat IPC: 0.68661 cumulative IPC: 0.53122 (Simulation time: 0 hr 14 min 17 sec) 
Heartbeat CPU  0 instructions:  305000003 cycles:  463951115 heartbeat IPC: 0.50611 cumulative IPC: 0.53109 (Simulation time: 0 hr 14 min 19 sec) 
Heartbeat CPU  0 instructions:  306000001 cycles:  465301898 heartbeat IPC: 0.74031 cumulative IPC: 0.53182 (Simulation time: 0 hr 14 min 21 sec) 
Heartbeat CPU  0 instructions:  307000001 cycles:  466759196 heartbeat IPC: 0.68620 cumulative IPC: 0.53240 (Simulation time: 0 hr 14 min 24 sec) 
Heartbeat CPU  0 instructions:  308000000 cycles:  468216399 heartbeat IPC: 0.68625 cumulative IPC: 0.53298 (Simulation time: 0 hr 14 min 26 sec) 
Heartbeat CPU  0 instructions:  309000003 cycles:  469673733 heartbeat IPC: 0.68619 cumulative IPC: 0.53355 (Simulation time: 0 hr 14 min 28 sec) 
Heartbeat CPU  0 instructions:  310000002 cycles:  471368121 heartbeat IPC: 0.59018 cumulative IPC: 0.53379 (Simulation time: 0 hr 14 min 31 sec) 
Heartbeat CPU  0 instructions:  311000000 cycles:  474531966 heartbeat IPC: 0.31607 cumulative IPC: 0.53205 (Simulation time: 0 hr 14 min 34 sec) 
Heartbeat CPU  0 instructions:  312000000 cycles:  477425399 heartbeat IPC: 0.34561 cumulative IPC: 0.53070 (Simulation time: 0 hr 14 min 37 sec) 
Heartbeat CPU  0 instructions:  313000002 cycles:  480296202 heartbeat IPC: 0.34834 cumulative IPC: 0.52940 (Simulation time: 0 hr 14 min 40 sec) 
Heartbeat CPU  0 instructions:  314000002 cycles:  483151445 heartbeat IPC: 0.35023 cumulative IPC: 0.52814 (Simulation time: 0 hr 14 min 44 sec) 
Heartbeat CPU  0 instructions:  315000001 cycles:  485996578 heartbeat IPC: 0.35148 cumulative IPC: 0.52691 (Simulation time: 0 hr 14 min 47 sec) 
Heartbeat CPU  0 instructions:  316000000 cycles:  488851584 heartbeat IPC: 0.35026 cumulative IPC: 0.52568 (Simulation time: 0 hr 14 min 50 sec) 
Heartbeat CPU  0 instructions:  317000002 cycles:  491714391 heartbeat IPC: 0.34931 cumulative IPC: 0.52446 (Simulation time: 0 hr 14 min 54 sec) 
Heartbeat CPU  0 instructions:  318000000 cycles:  494559623 heartbeat IPC: 0.35146 cumulative IPC: 0.52328 (Simulation time: 0 hr 14 min 57 sec) 
Heartbeat CPU  0 instructions:  319000003 cycles:  497424960 heartbeat IPC: 0.34900 cumulative IPC: 0.52209 (Simulation time: 0 hr 15 min 0 sec) 
Heartbeat CPU  0 instructions:  320000000 cycles:  500278346 heartbeat IPC: 0.35046 cumulative IPC: 0.52093 (Simulation time: 0 hr 15 min 3 sec) 
Heartbeat CPU  0 instructions:  321000001 cycles:  503126824 heartbeat IPC: 0.35107 cumulative IPC: 0.51979 (Simulation time: 0 hr 15 min 7 sec) 
Heartbeat CPU  0 instructions:  322000001 cycles:  505983305 heartbeat IPC: 0.35008 cumulative IPC: 0.51866 (Simulation time: 0 hr 15 min 10 sec) 
Heartbeat CPU  0 instructions:  323000001 cycles:  508946075 heartbeat IPC: 0.33752 cumulative IPC: 0.51741 (Simulation time: 0 hr 15 min 13 sec) 
Heartbeat CPU  0 instructions:  324000000 cycles:  511827009 heartbeat IPC: 0.34711 cumulative IPC: 0.51628 (Simulation time: 0 hr 15 min 16 sec) 
Heartbeat CPU  0 instructions:  325000003 cycles:  514706270 heartbeat IPC: 0.34731 cumulative IPC: 0.51517 (Simulation time: 0 hr 15 min 20 sec) 
Heartbeat CPU  0 instructions:  326000000 cycles:  517560465 heartbeat IPC: 0.35036 cumulative IPC: 0.51410 (Simulation time: 0 hr 15 min 23 sec) 
Heartbeat CPU  0 instructions:  327000003 cycles:  520414245 heartbeat IPC: 0.35041 cumulative IPC: 0.51304 (Simulation time: 0 hr 15 min 26 sec) 
Heartbeat CPU  0 instructions:  328000000 cycles:  523289348 heartbeat IPC: 0.34781 cumulative IPC: 0.51198 (Simulation time: 0 hr 15 min 29 sec) 
Heartbeat CPU  0 instructions:  329000001 cycles:  526146306 heartbeat IPC: 0.35002 cumulative IPC: 0.51094 (Simulation time: 0 hr 15 min 33 sec) 
Heartbeat CPU  0 instructions:  330000000 cycles:  529001251 heartbeat IPC: 0.35027 cumulative IPC: 0.50993 (Simulation time: 0 hr 15 min 36 sec) 
Heartbeat CPU  0 instructions:  331000003 cycles:  531877178 heartbeat IPC: 0.34772 cumulative IPC: 0.50890 (Simulation time: 0 hr 15 min 39 sec) 
Heartbeat CPU  0 instructions:  332000000 cycles:  534734162 heartbeat IPC: 0.35002 cumulative IPC: 0.50791 (Simulation time: 0 hr 15 min 43 sec) 
Heartbeat CPU  0 instructions:  333000000 cycles:  537583169 heartbeat IPC: 0.35100 cumulative IPC: 0.50693 (Simulation time: 0 hr 15 min 46 sec) 
Heartbeat CPU  0 instructions:  334000001 cycles:  540444110 heartbeat IPC: 0.34954 cumulative IPC: 0.50596 (Simulation time: 0 hr 15 min 49 sec) 
Heartbeat CPU  0 instructions:  335000001 cycles:  543068940 heartbeat IPC: 0.38098 cumulative IPC: 0.50525 (Simulation time: 0 hr 15 min 52 sec) 
Heartbeat CPU  0 instructions:  336000000 cycles:  544831329 heartbeat IPC: 0.56741 cumulative IPC: 0.50549 (Simulation time: 0 hr 15 min 55 sec) 
Heartbeat CPU  0 instructions:  337000002 cycles:  546593567 heartbeat IPC: 0.56746 cumulative IPC: 0.50572 (Simulation time: 0 hr 15 min 58 sec) 
Heartbeat CPU  0 instructions:  338000002 cycles:  548340950 heartbeat IPC: 0.57228 cumulative IPC: 0.50597 (Simulation time: 0 hr 16 min 1 sec) 
Heartbeat CPU  0 instructions:  339000001 cycles:  550102994 heartbeat IPC: 0.56752 cumulative IPC: 0.50620 (Simulation time: 0 hr 16 min 4 sec) 
Heartbeat CPU  0 instructions:  340000000 cycles:  551845695 heartbeat IPC: 0.57382 cumulative IPC: 0.50645 (Simulation time: 0 hr 16 min 7 sec) 
Heartbeat CPU  0 instructions:  341000002 cycles:  553575997 heartbeat IPC: 0.57793 cumulative IPC: 0.50671 (Simulation time: 0 hr 16 min 10 sec) 
Heartbeat CPU  0 instructions:  342000001 cycles:  555306767 heartbeat IPC: 0.57778 cumulative IPC: 0.50696 (Simulation time: 0 hr 16 min 13 sec) 
Heartbeat CPU  0 instructions:  343000003 cycles:  557071757 heartbeat IPC: 0.56658 cumulative IPC: 0.50718 (Simulation time: 0 hr 16 min 15 sec) 
Heartbeat CPU  0 instructions:  344000000 cycles:  558853628 heartbeat IPC: 0.56121 cumulative IPC: 0.50738 (Simulation time: 0 hr 16 min 18 sec) 
Heartbeat CPU  0 instructions:  345000001 cycles:  560602563 heartbeat IPC: 0.57178 cumulative IPC: 0.50762 (Simulation time: 0 hr 16 min 21 sec) 
Heartbeat CPU  0 instructions:  346000002 cycles:  562403253 heartbeat IPC: 0.55534 cumulative IPC: 0.50780 (Simulation time: 0 hr 16 min 24 sec) 
Heartbeat CPU  0 instructions:  347000000 cycles:  564358631 heartbeat IPC: 0.51141 cumulative IPC: 0.50781 (Simulation time: 0 hr 16 min 27 sec) 
Heartbeat CPU  0 instructions:  348000000 cycles:  566081876 heartbeat IPC: 0.58030 cumulative IPC: 0.50807 (Simulation time: 0 hr 16 min 30 sec) 
Heartbeat CPU  0 instructions:  349000001 cycles:  567794202 heartbeat IPC: 0.58400 cumulative IPC: 0.50833 (Simulation time: 0 hr 16 min 33 sec) 
Heartbeat CPU  0 instructions:  350000001 cycles:  569538211 heartbeat IPC: 0.57339 cumulative IPC: 0.50856 (Simulation time: 0 hr 16 min 36 sec) 
Heartbeat CPU  0 instructions:  351000000 cycles:  571286896 heartbeat IPC: 0.57186 cumulative IPC: 0.50879 (Simulation time: 0 hr 16 min 39 sec) 
Heartbeat CPU  0 instructions:  352000000 cycles:  573076995 heartbeat IPC: 0.55863 cumulative IPC: 0.50897 (Simulation time: 0 hr 16 min 41 sec) 
Heartbeat CPU  0 instructions:  353000002 cycles:  574859067 heartbeat IPC: 0.56115 cumulative IPC: 0.50915 (Simulation time: 0 hr 16 min 44 sec) 
Heartbeat CPU  0 instructions:  354000000 cycles:  576639728 heartbeat IPC: 0.56159 cumulative IPC: 0.50934 (Simulation time: 0 hr 16 min 47 sec) 
Heartbeat CPU  0 instructions:  355000003 cycles:  578385013 heartbeat IPC: 0.57297 cumulative IPC: 0.50956 (Simulation time: 0 hr 16 min 50 sec) 
Heartbeat CPU  0 instructions:  356000000 cycles:  580157639 heartbeat IPC: 0.56413 cumulative IPC: 0.50976 (Simulation time: 0 hr 16 min 53 sec) 
Heartbeat CPU  0 instructions:  357000001 cycles:  581926911 heartbeat IPC: 0.56520 cumulative IPC: 0.50995 (Simulation time: 0 hr 16 min 56 sec) 
Heartbeat CPU  0 instructions:  358000003 cycles:  583707093 heartbeat IPC: 0.56174 cumulative IPC: 0.51013 (Simulation time: 0 hr 16 min 59 sec) 
Heartbeat CPU  0 instructions:  359000002 cycles:  585415740 heartbeat IPC: 0.58526 cumulative IPC: 0.51039 (Simulation time: 0 hr 17 min 2 sec) 
Heartbeat CPU  0 instructions:  360000000 cycles:  587025461 heartbeat IPC: 0.62122 cumulative IPC: 0.51074 (Simulation time: 0 hr 17 min 5 sec) 
Heartbeat CPU  0 instructions:  361000000 cycles:  588477357 heartbeat IPC: 0.68875 cumulative IPC: 0.51124 (Simulation time: 0 hr 17 min 7 sec) 
Heartbeat CPU  0 instructions:  362000002 cycles:  589934593 heartbeat IPC: 0.68623 cumulative IPC: 0.51174 (Simulation time: 0 hr 17 min 10 sec) 
Heartbeat CPU  0 instructions:  363000002 cycles:  591389134 heartbeat IPC: 0.68750 cumulative IPC: 0.51224 (Simulation time: 0 hr 17 min 13 sec) 
Heartbeat CPU  0 instructions:  364000000 cycles:  592848309 heartbeat IPC: 0.68532 cumulative IPC: 0.51273 (Simulation time: 0 hr 17 min 16 sec) 
Heartbeat CPU  0 instructions:  365000002 cycles:  594300153 heartbeat IPC: 0.68878 cumulative IPC: 0.51322 (Simulation time: 0 hr 17 min 19 sec) 
Heartbeat CPU  0 instructions:  366000002 cycles:  595756099 heartbeat IPC: 0.68684 cumulative IPC: 0.51371 (Simulation time: 0 hr 17 min 21 sec) 
Heartbeat CPU  0 instructions:  367000001 cycles:  597209662 heartbeat IPC: 0.68796 cumulative IPC: 0.51420 (Simulation time: 0 hr 17 min 24 sec) 
Heartbeat CPU  0 instructions:  368000000 cycles:  598663910 heartbeat IPC: 0.68764 cumulative IPC: 0.51468 (Simulation time: 0 hr 17 min 27 sec) 
Heartbeat CPU  0 instructions:  369000000 cycles:  600115987 heartbeat IPC: 0.68867 cumulative IPC: 0.51517 (Simulation time: 0 hr 17 min 30 sec) 
Heartbeat CPU  0 instructions:  370000003 cycles:  601574835 heartbeat IPC: 0.68547 cumulative IPC: 0.51564 (Simulation time: 0 hr 17 min 33 sec) 
Heartbeat CPU  0 instructions:  371000001 cycles:  603042340 heartbeat IPC: 0.68143 cumulative IPC: 0.51611 (Simulation time: 0 hr 17 min 35 sec) 
Heartbeat CPU  0 instructions:  372000000 cycles:  604511144 heartbeat IPC: 0.68083 cumulative IPC: 0.51657 (Simulation time: 0 hr 17 min 38 sec) 
Heartbeat CPU  0 instructions:  373000000 cycles:  605982776 heartbeat IPC: 0.67952 cumulative IPC: 0.51702 (Simulation time: 0 hr 17 min 41 sec) 
Heartbeat CPU  0 instructions:  374000000 cycles:  607460583 heartbeat IPC: 0.67668 cumulative IPC: 0.51746 (Simulation time: 0 hr 17 min 44 sec) 
Heartbeat CPU  0 instructions:  375000001 cycles:  609077793 heartbeat IPC: 0.61835 cumulative IPC: 0.51777 (Simulation time: 0 hr 17 min 47 sec) 
Heartbeat CPU  0 instructions:  376000000 cycles:  610504732 heartbeat IPC: 0.70080 cumulative IPC: 0.51826 (Simulation time: 0 hr 17 min 49 sec) 
Heartbeat CPU  0 instructions:  377000001 cycles:  611933965 heartbeat IPC: 0.69968 cumulative IPC: 0.51875 (Simulation time: 0 hr 17 min 52 sec) 
Heartbeat CPU  0 instructions:  378000003 cycles:  613361461 heartbeat IPC: 0.70053 cumulative IPC: 0.51923 (Simulation time: 0 hr 17 min 55 sec) 
Heartbeat CPU  0 instructions:  379000000 cycles:  614793817 heartbeat IPC: 0.69815 cumulative IPC: 0.51971 (Simulation time: 0 hr 17 min 58 sec) 
Heartbeat CPU  0 instructions:  380000000 cycles:  616215726 heartbeat IPC: 0.70328 cumulative IPC: 0.52019 (Simulation time: 0 hr 18 min 1 sec) 
Heartbeat CPU  0 instructions:  381000003 cycles:  617639879 heartbeat IPC: 0.70217 cumulative IPC: 0.52068 (Simulation time: 0 hr 18 min 3 sec) 
Heartbeat CPU  0 instructions:  382000003 cycles:  619060720 heartbeat IPC: 0.70381 cumulative IPC: 0.52116 (Simulation time: 0 hr 18 min 6 sec) 
Heartbeat CPU  0 instructions:  383000003 cycles:  620482828 heartbeat IPC: 0.70318 cumulative IPC: 0.52163 (Simulation time: 0 hr 18 min 9 sec) 
Heartbeat CPU  0 instructions:  384000000 cycles:  621904975 heartbeat IPC: 0.70316 cumulative IPC: 0.52211 (Simulation time: 0 hr 18 min 12 sec) 
Heartbeat CPU  0 instructions:  385000003 cycles:  623332310 heartbeat IPC: 0.70061 cumulative IPC: 0.52257 (Simulation time: 0 hr 18 min 15 sec) 
Heartbeat CPU  0 instructions:  386000001 cycles:  624762315 heartbeat IPC: 0.69930 cumulative IPC: 0.52304 (Simulation time: 0 hr 18 min 17 sec) 
Heartbeat CPU  0 instructions:  387000003 cycles:  626195236 heartbeat IPC: 0.69788 cumulative IPC: 0.52349 (Simulation time: 0 hr 18 min 20 sec) 
Heartbeat CPU  0 instructions:  388000000 cycles:  627651122 heartbeat IPC: 0.68686 cumulative IPC: 0.52393 (Simulation time: 0 hr 18 min 23 sec) 
Heartbeat CPU  0 instructions:  389000003 cycles:  629114010 heartbeat IPC: 0.68358 cumulative IPC: 0.52435 (Simulation time: 0 hr 18 min 26 sec) 
Heartbeat CPU  0 instructions:  390000000 cycles:  631112325 heartbeat IPC: 0.50042 cumulative IPC: 0.52426 (Simulation time: 0 hr 18 min 29 sec) 
Heartbeat CPU  0 instructions:  391000000 cycles:  633957162 heartbeat IPC: 0.35151 cumulative IPC: 0.52338 (Simulation time: 0 hr 18 min 32 sec) 
Heartbeat CPU  0 instructions:  392000000 cycles:  636794870 heartbeat IPC: 0.35240 cumulative IPC: 0.52251 (Simulation time: 0 hr 18 min 35 sec) 
Heartbeat CPU  0 instructions:  393000003 cycles:  639626334 heartbeat IPC: 0.35318 cumulative IPC: 0.52166 (Simulation time: 0 hr 18 min 39 sec) 
Heartbeat CPU  0 instructions:  394000001 cycles:  642472806 heartbeat IPC: 0.35131 cumulative IPC: 0.52080 (Simulation time: 0 hr 18 min 42 sec) 
Heartbeat CPU  0 instructions:  395000002 cycles:  645302595 heartbeat IPC: 0.35338 cumulative IPC: 0.51996 (Simulation time: 0 hr 18 min 45 sec) 
Heartbeat CPU  0 instructions:  396000000 cycles:  648142375 heartbeat IPC: 0.35214 cumulative IPC: 0.51913 (Simulation time: 0 hr 18 min 48 sec) 
Heartbeat CPU  0 instructions:  397000002 cycles:  650975220 heartbeat IPC: 0.35300 cumulative IPC: 0.51831 (Simulation time: 0 hr 18 min 52 sec) 
Heartbeat CPU  0 instructions:  398000001 cycles:  653808572 heartbeat IPC: 0.35294 cumulative IPC: 0.51749 (Simulation time: 0 hr 18 min 55 sec) 
Heartbeat CPU  0 instructions:  399000001 cycles:  656660197 heartbeat IPC: 0.35068 cumulative IPC: 0.51667 (Simulation time: 0 hr 18 min 58 sec) 
Heartbeat CPU  0 instructions:  400000000 cycles:  659498399 heartbeat IPC: 0.35234 cumulative IPC: 0.51587 (Simulation time: 0 hr 19 min 2 sec) 
Heartbeat CPU  0 instructions:  401000001 cycles:  662343709 heartbeat IPC: 0.35146 cumulative IPC: 0.51507 (Simulation time: 0 hr 19 min 5 sec) 
Heartbeat CPU  0 instructions:  402000000 cycles:  665284028 heartbeat IPC: 0.34010 cumulative IPC: 0.51419 (Simulation time: 0 hr 19 min 9 sec) 
Heartbeat CPU  0 instructions:  403000000 cycles:  668122207 heartbeat IPC: 0.35234 cumulative IPC: 0.51341 (Simulation time: 0 hr 19 min 12 sec) 
Heartbeat CPU  0 instructions:  404000000 cycles:  670966132 heartbeat IPC: 0.35163 cumulative IPC: 0.51264 (Simulation time: 0 hr 19 min 15 sec) 
Heartbeat CPU  0 instructions:  405000000 cycles:  673803099 heartbeat IPC: 0.35249 cumulative IPC: 0.51188 (Simulation time: 0 hr 19 min 19 sec) 
Heartbeat CPU  0 instructions:  406000000 cycles:  676633085 heartbeat IPC: 0.35336 cumulative IPC: 0.51113 (Simulation time: 0 hr 19 min 22 sec) 
Heartbeat CPU  0 instructions:  407000002 cycles:  679481151 heartbeat IPC: 0.35112 cumulative IPC: 0.51037 (Simulation time: 0 hr 19 min 25 sec) 
Heartbeat CPU  0 instructions:  408000000 cycles:  682334973 heartbeat IPC: 0.35041 cumulative IPC: 0.50961 (Simulation time: 0 hr 19 min 28 sec) 
Heartbeat CPU  0 instructions:  409000002 cycles:  685158108 heartbeat IPC: 0.35422 cumulative IPC: 0.50889 (Simulation time: 0 hr 19 min 32 sec) 
Heartbeat CPU  0 instructions:  410000003 cycles:  687998811 heartbeat IPC: 0.35203 cumulative IPC: 0.50816 (Simulation time: 0 hr 19 min 35 sec) 
Heartbeat CPU  0 instructions:  411000001 cycles:  690830491 heartbeat IPC: 0.35315 cumulative IPC: 0.50744 (Simulation time: 0 hr 19 min 38 sec) 
Heartbeat CPU  0 instructions:  412000000 cycles:  693649258 heartbeat IPC: 0.35476 cumulative IPC: 0.50675 (Simulation time: 0 hr 19 min 41 sec) 
Heartbeat CPU  0 instructions:  413000002 cycles:  696487201 heartbeat IPC: 0.35237 cumulative IPC: 0.50604 (Simulation time: 0 hr 19 min 45 sec) 
Heartbeat CPU  0 instructions:  414000001 cycles:  699335135 heartbeat IPC: 0.35113 cumulative IPC: 0.50533 (Simulation time: 0 hr 19 min 48 sec) 
Heartbeat CPU  0 instructions:  415000000 cycles:  700983883 heartbeat IPC: 0.60652 cumulative IPC: 0.50560 (Simulation time: 0 hr 19 min 51 sec) 
Heartbeat CPU  0 instructions:  416000000 cycles:  702620254 heartbeat IPC: 0.61111 cumulative IPC: 0.50587 (Simulation time: 0 hr 19 min 54 sec) 
Heartbeat CPU  0 instructions:  417000003 cycles:  704255247 heartbeat IPC: 0.61163 cumulative IPC: 0.50615 (Simulation time: 0 hr 19 min 57 sec) 
Heartbeat CPU  0 instructions:  418000000 cycles:  705879287 heartbeat IPC: 0.61575 cumulative IPC: 0.50643 (Simulation time: 0 hr 19 min 59 sec) 
Heartbeat CPU  0 instructions:  419000002 cycles:  707533789 heartbeat IPC: 0.60441 cumulative IPC: 0.50669 (Simulation time: 0 hr 20 min 2 sec) 
Heartbeat CPU  0 instructions:  420000000 cycles:  709180499 heartbeat IPC: 0.60727 cumulative IPC: 0.50695 (Simulation time: 0 hr 20 min 5 sec) 
Heartbeat CPU  0 instructions:  421000000 cycles:  710806238 heartbeat IPC: 0.61510 cumulative IPC: 0.50723 (Simulation time: 0 hr 20 min 8 sec) 
Heartbeat CPU  0 instructions:  422000001 cycles:  712450384 heartbeat IPC: 0.60822 cumulative IPC: 0.50749 (Simulation time: 0 hr 20 min 11 sec) 
Heartbeat CPU  0 instructions:  423000003 cycles:  714098457 heartbeat IPC: 0.60677 cumulative IPC: 0.50775 (Simulation time: 0 hr 20 min 14 sec) 
Heartbeat CPU  0 instructions:  424000000 cycles:  715735667 heartbeat IPC: 0.61079 cumulative IPC: 0.50801 (Simulation time: 0 hr 20 min 16 sec) 
Heartbeat CPU  0 instructions:  425000003 cycles:  717376054 heartbeat IPC: 0.60961 cumulative IPC: 0.50827 (Simulation time: 0 hr 20 min 19 sec) 
Heartbeat CPU  0 instructions:  426000002 cycles:  719044415 heartbeat IPC: 0.59939 cumulative IPC: 0.50851 (Simulation time: 0 hr 20 min 22 sec) 
Heartbeat CPU  0 instructions:  427000003 cycles:  720893125 heartbeat IPC: 0.54092 cumulative IPC: 0.50860 (Simulation time: 0 hr 20 min 25 sec) 
Heartbeat CPU  0 instructions:  428000000 cycles:  722534022 heartbeat IPC: 0.60942 cumulative IPC: 0.50886 (Simulation time: 0 hr 20 min 28 sec) 
Heartbeat CPU  0 instructions:  429000001 cycles:  724156549 heartbeat IPC: 0.61632 cumulative IPC: 0.50913 (Simulation time: 0 hr 20 min 31 sec) 
Heartbeat CPU  0 instructions:  430000003 cycles:  725796237 heartbeat IPC: 0.60987 cumulative IPC: 0.50938 (Simulation time: 0 hr 20 min 34 sec) 
Heartbeat CPU  0 instructions:  431000001 cycles:  727394698 heartbeat IPC: 0.62560 cumulative IPC: 0.50967 (Simulation time: 0 hr 20 min 37 sec) 
Heartbeat CPU  0 instructions:  432000000 cycles:  729038538 heartbeat IPC: 0.60833 cumulative IPC: 0.50992 (Simulation time: 0 hr 20 min 40 sec) 
Heartbeat CPU  0 instructions:  433000001 cycles:  730654771 heartbeat IPC: 0.61872 cumulative IPC: 0.51019 (Simulation time: 0 hr 20 min 42 sec) 
Heartbeat CPU  0 instructions:  434000001 cycles:  732293088 heartbeat IPC: 0.61038 cumulative IPC: 0.51044 (Simulation time: 0 hr 20 min 45 sec) 
Heartbeat CPU  0 instructions:  435000000 cycles:  733904348 heartbeat IPC: 0.62063 cumulative IPC: 0.51071 (Simulation time: 0 hr 20 min 48 sec) 
Heartbeat CPU  0 instructions:  436000000 cycles:  735562392 heartbeat IPC: 0.60312 cumulative IPC: 0.51094 (Simulation time: 0 hr 20 min 51 sec) 
Heartbeat CPU  0 instructions:  437000000 cycles:  737196321 heartbeat IPC: 0.61202 cumulative IPC: 0.51119 (Simulation time: 0 hr 20 min 54 sec) 
Heartbeat CPU  0 instructions:  438000000 cycles:  738856790 heartbeat IPC: 0.60224 cumulative IPC: 0.51142 (Simulation time: 0 hr 20 min 57 sec) 
Heartbeat CPU  0 instructions:  439000000 cycles:  740554247 heartbeat IPC: 0.58912 cumulative IPC: 0.51162 (Simulation time: 0 hr 21 min 0 sec) 
Heartbeat CPU  0 instructions:  440000000 cycles:  742029710 heartbeat IPC: 0.67775 cumulative IPC: 0.51199 (Simulation time: 0 hr 21 min 2 sec) 
Heartbeat CPU  0 instructions:  441000001 cycles:  743496768 heartbeat IPC: 0.68164 cumulative IPC: 0.51237 (Simulation time: 0 hr 21 min 5 sec) 
Heartbeat CPU  0 instructions:  442000001 cycles:  744961003 heartbeat IPC: 0.68295 cumulative IPC: 0.51274 (Simulation time: 0 hr 21 min 8 sec) 
Heartbeat CPU  0 instructions:  443000000 cycles:  746424771 heartbeat IPC: 0.68317 cumulative IPC: 0.51311 (Simulation time: 0 hr 21 min 11 sec) 
Heartbeat CPU  0 instructions:  444000000 cycles:  747890524 heartbeat IPC: 0.68224 cumulative IPC: 0.51348 (Simulation time: 0 hr 21 min 14 sec) 
Heartbeat CPU  0 instructions:  445000000 cycles:  749356710 heartbeat IPC: 0.68204 cumulative IPC: 0.51385 (Simulation time: 0 hr 21 min 17 sec) 
Heartbeat CPU  0 instructions:  446000002 cycles:  750828035 heartbeat IPC: 0.67966 cumulative IPC: 0.51421 (Simulation time: 0 hr 21 min 19 sec) 
Heartbeat CPU  0 instructions:  447000000 cycles:  752293373 heartbeat IPC: 0.68244 cumulative IPC: 0.51458 (Simulation time: 0 hr 21 min 22 sec) 
Heartbeat CPU  0 instructions:  448000000 cycles:  753760900 heartbeat IPC: 0.68142 cumulative IPC: 0.51494 (Simulation time: 0 hr 21 min 25 sec) 
Heartbeat CPU  0 instructions:  449000003 cycles:  755232591 heartbeat IPC: 0.67949 cumulative IPC: 0.51530 (Simulation time: 0 hr 21 min 28 sec) 
Heartbeat CPU  0 instructions:  450000000 cycles:  756716665 heartbeat IPC: 0.67382 cumulative IPC: 0.51565 (Simulation time: 0 hr 21 min 31 sec) 
Heartbeat CPU  0 instructions:  451000003 cycles:  758196553 heartbeat IPC: 0.67573 cumulative IPC: 0.51599 (Simulation time: 0 hr 21 min 33 sec) 
Heartbeat CPU  0 instructions:  452000000 cycles:  759679148 heartbeat IPC: 0.67449 cumulative IPC: 0.51634 (Simulation time: 0 hr 21 min 36 sec) 
Heartbeat CPU  0 instructions:  453000003 cycles:  761173735 heartbeat IPC: 0.66908 cumulative IPC: 0.51667 (Simulation time: 0 hr 21 min 39 sec) 
Heartbeat CPU  0 instructions:  454000001 cycles:  762855832 heartbeat IPC: 0.59449 cumulative IPC: 0.51686 (Simulation time: 0 hr 21 min 42 sec) 
Heartbeat CPU  0 instructions:  455000003 cycles:  764330329 heartbeat IPC: 0.67820 cumulative IPC: 0.51721 (Simulation time: 0 hr 21 min 45 sec) 
Heartbeat CPU  0 instructions:  456000000 cycles:  765786468 heartbeat IPC: 0.68675 cumulative IPC: 0.51757 (Simulation time: 0 hr 21 min 48 sec) 
Heartbeat CPU  0 instructions:  457000001 cycles:  767245861 heartbeat IPC: 0.68522 cumulative IPC: 0.51792 (Simulation time: 0 hr 21 min 50 sec) 
Heartbeat CPU  0 instructions:  458000003 cycles:  768701596 heartbeat IPC: 0.68694 cumulative IPC: 0.51828 (Simulation time: 0 hr 21 min 53 sec) 
Heartbeat CPU  0 instructions:  459000001 cycles:  770154803 heartbeat IPC: 0.68813 cumulative IPC: 0.51864 (Simulation time: 0 hr 21 min 56 sec) 
Heartbeat CPU  0 instructions:  460000000 cycles:  771613310 heartbeat IPC: 0.68563 cumulative IPC: 0.51899 (Simulation time: 0 hr 21 min 59 sec) 
Heartbeat CPU  0 instructions:  461000003 cycles:  773070023 heartbeat IPC: 0.68648 cumulative IPC: 0.51934 (Simulation time: 0 hr 22 min 2 sec) 
Heartbeat CPU  0 instructions:  462000001 cycles:  774536723 heartbeat IPC: 0.68180 cumulative IPC: 0.51968 (Simulation time: 0 hr 22 min 4 sec) 
Heartbeat CPU  0 instructions:  463000000 cycles:  776007079 heartbeat IPC: 0.68011 cumulative IPC: 0.52002 (Simulation time: 0 hr 22 min 7 sec) 
Heartbeat CPU  0 instructions:  464000000 cycles:  777476475 heartbeat IPC: 0.68055 cumulative IPC: 0.52036 (Simulation time: 0 hr 22 min 10 sec) 
Heartbeat CPU  0 instructions:  465000001 cycles:  778949186 heartbeat IPC: 0.67902 cumulative IPC: 0.52069 (Simulation time: 0 hr 22 min 13 sec) 
Heartbeat CPU  0 instructions:  466000003 cycles:  780431626 heartbeat IPC: 0.67456 cumulative IPC: 0.52101 (Simulation time: 0 hr 22 min 16 sec) 
Heartbeat CPU  0 instructions:  467000003 cycles:  781914295 heartbeat IPC: 0.67446 cumulative IPC: 0.52134 (Simulation time: 0 hr 22 min 18 sec) 
Heartbeat CPU  0 instructions:  468000000 cycles:  783410560 heartbeat IPC: 0.66833 cumulative IPC: 0.52165 (Simulation time: 0 hr 22 min 21 sec) 
Heartbeat CPU  0 instructions:  469000002 cycles:  785094502 heartbeat IPC: 0.59385 cumulative IPC: 0.52182 (Simulation time: 0 hr 22 min 24 sec) 
Heartbeat CPU  0 instructions:  470000000 cycles:  787933594 heartbeat IPC: 0.35222 cumulative IPC: 0.52114 (Simulation time: 0 hr 22 min 27 sec) 
Heartbeat CPU  0 instructions:  471000001 cycles:  790716877 heartbeat IPC: 0.35929 cumulative IPC: 0.52051 (Simulation time: 0 hr 22 min 31 sec) 
Heartbeat CPU  0 instructions:  472000000 cycles:  793504414 heartbeat IPC: 0.35874 cumulative IPC: 0.51988 (Simulation time: 0 hr 22 min 34 sec) 
Heartbeat CPU  0 instructions:  473000001 cycles:  796288340 heartbeat IPC: 0.35921 cumulative IPC: 0.51926 (Simulation time: 0 hr 22 min 37 sec) 
Heartbeat CPU  0 instructions:  474000003 cycles:  799084417 heartbeat IPC: 0.35764 cumulative IPC: 0.51863 (Simulation time: 0 hr 22 min 40 sec) 
Heartbeat CPU  0 instructions:  475000002 cycles:  801872882 heartbeat IPC: 0.35862 cumulative IPC: 0.51802 (Simulation time: 0 hr 22 min 44 sec) 
Heartbeat CPU  0 instructions:  476000000 cycles:  804664628 heartbeat IPC: 0.35820 cumulative IPC: 0.51740 (Simulation time: 0 hr 22 min 47 sec) 
Heartbeat CPU  0 instructions:  477000003 cycles:  807445170 heartbeat IPC: 0.35964 cumulative IPC: 0.51680 (Simulation time: 0 hr 22 min 50 sec) 
Heartbeat CPU  0 instructions:  478000000 cycles:  810232670 heartbeat IPC: 0.35874 cumulative IPC: 0.51620 (Simulation time: 0 hr 22 min 54 sec) 
Heartbeat CPU  0 instructions:  479000001 cycles:  813023544 heartbeat IPC: 0.35831 cumulative IPC: 0.51560 (Simulation time: 0 hr 22 min 57 sec) 
Heartbeat CPU  0 instructions:  480000000 cycles:  815821154 heartbeat IPC: 0.35745 cumulative IPC: 0.51500 (Simulation time: 0 hr 23 min 0 sec) 
Heartbeat CPU  0 instructions:  481000001 cycles:  818683908 heartbeat IPC: 0.34931 cumulative IPC: 0.51436 (Simulation time: 0 hr 23 min 3 sec) 
Heartbeat CPU  0 instructions:  482000000 cycles:  821570786 heartbeat IPC: 0.34639 cumulative IPC: 0.51371 (Simulation time: 0 hr 23 min 7 sec) 
Heartbeat CPU  0 instructions:  483000001 cycles:  824379541 heartbeat IPC: 0.35603 cumulative IPC: 0.51311 (Simulation time: 0 hr 23 min 10 sec) 
Heartbeat CPU  0 instructions:  484000000 cycles:  827190040 heartbeat IPC: 0.35581 cumulative IPC: 0.51252 (Simulation time: 0 hr 23 min 13 sec) 
Heartbeat CPU  0 instructions:  485000001 cycles:  829999134 heartbeat IPC: 0.35599 cumulative IPC: 0.51194 (Simulation time: 0 hr 23 min 17 sec) 
Heartbeat CPU  0 instructions:  486000002 cycles:  832809048 heartbeat IPC: 0.35588 cumulative IPC: 0.51136 (Simulation time: 0 hr 23 min 20 sec) 
Heartbeat CPU  0 instructions:  487000003 cycles:  835622753 heartbeat IPC: 0.35540 cumulative IPC: 0.51078 (Simulation time: 0 hr 23 min 23 sec) 
Heartbeat CPU  0 instructions:  488000000 cycles:  838432890 heartbeat IPC: 0.35585 cumulative IPC: 0.51021 (Simulation time: 0 hr 23 min 26 sec) 
Heartbeat CPU  0 instructions:  489000002 cycles:  841248569 heartbeat IPC: 0.35515 cumulative IPC: 0.50963 (Simulation time: 0 hr 23 min 30 sec) 
Heartbeat CPU  0 instructions:  490000003 cycles:  844056170 heartbeat IPC: 0.35618 cumulative IPC: 0.50907 (Simulation time: 0 hr 23 min 33 sec) 
Heartbeat CPU  0 instructions:  491000003 cycles:  846863096 heartbeat IPC: 0.35626 cumulative IPC: 0.50851 (Simulation time: 0 hr 23 min 36 sec) 
Heartbeat CPU  0 instructions:  492000000 cycles:  849671719 heartbeat IPC: 0.35605 cumulative IPC: 0.50796 (Simulation time: 0 hr 23 min 40 sec) 
Heartbeat CPU  0 instructions:  493000002 cycles:  852473012 heartbeat IPC: 0.35698 cumulative IPC: 0.50741 (Simulation time: 0 hr 23 min 43 sec) 
Heartbeat CPU  0 instructions:  494000002 cycles:  854436281 heartbeat IPC: 0.50935 cumulative IPC: 0.50742 (Simulation time: 0 hr 23 min 46 sec) 
Heartbeat CPU  0 instructions:  495000003 cycles:  856107711 heartbeat IPC: 0.59829 cumulative IPC: 0.50761 (Simulation time: 0 hr 23 min 49 sec) 
Heartbeat CPU  0 instructions:  496000000 cycles:  857774504 heartbeat IPC: 0.59995 cumulative IPC: 0.50781 (Simulation time: 0 hr 23 min 51 sec) 
Heartbeat CPU  0 instructions:  497000002 cycles:  859434443 heartbeat IPC: 0.60243 cumulative IPC: 0.50801 (Simulation time: 0 hr 23 min 54 sec) 
Heartbeat CPU  0 instructions:  498000002 cycles:  861087207 heartbeat IPC: 0.60505 cumulative IPC: 0.50822 (Simulation time: 0 hr 23 min 57 sec) 
Heartbeat CPU  0 instructions:  499000002 cycles:  862731308 heartbeat IPC: 0.60824 cumulative IPC: 0.50843 (Simulation time: 0 hr 24 min 0 sec) 
Heartbeat CPU  0 instructions:  500000000 cycles:  864367196 heartbeat IPC: 0.61129 cumulative IPC: 0.50864 (Simulation time: 0 hr 24 min 3 sec) 
Heartbeat CPU  0 instructions:  501000000 cycles:  865985749 heartbeat IPC: 0.61784 cumulative IPC: 0.50886 (Simulation time: 0 hr 24 min 6 sec) 
Heartbeat CPU  0 instructions:  502000001 cycles:  867650112 heartbeat IPC: 0.60083 cumulative IPC: 0.50906 (Simulation time: 0 hr 24 min 9 sec) 
Heartbeat CPU  0 instructions:  503000001 cycles:  869320958 heartbeat IPC: 0.59850 cumulative IPC: 0.50925 (Simulation time: 0 hr 24 min 11 sec) 
Heartbeat CPU  0 instructions:  504000000 cycles:  870986564 heartbeat IPC: 0.60038 cumulative IPC: 0.50944 (Simulation time: 0 hr 24 min 14 sec) 
Heartbeat CPU  0 instructions:  505000000 cycles:  872696745 heartbeat IPC: 0.58473 cumulative IPC: 0.50960 (Simulation time: 0 hr 24 min 17 sec) 
Heartbeat CPU  0 instructions:  506000001 cycles:  874603220 heartbeat IPC: 0.52453 cumulative IPC: 0.50964 (Simulation time: 0 hr 24 min 20 sec) 
Heartbeat CPU  0 instructions:  507000002 cycles:  876233905 heartbeat IPC: 0.61324 cumulative IPC: 0.50985 (Simulation time: 0 hr 24 min 23 sec) 
Heartbeat CPU  0 instructions:  508000000 cycles:  877885035 heartbeat IPC: 0.60564 cumulative IPC: 0.51005 (Simulation time: 0 hr 24 min 26 sec) 
Heartbeat CPU  0 instructions:  509000000 cycles:  879538932 heartbeat IPC: 0.60463 cumulative IPC: 0.51024 (Simulation time: 0 hr 24 min 29 sec) 
Heartbeat CPU  0 instructions:  510000001 cycles:  881213103 heartbeat IPC: 0.59731 cumulative IPC: 0.51042 (Simulation time: 0 hr 24 min 32 sec) 
Heartbeat CPU  0 instructions:  511000002 cycles:  882864737 heartbeat IPC: 0.60546 cumulative IPC: 0.51062 (Simulation time: 0 hr 24 min 34 sec) 
Heartbeat CPU  0 instructions:  512000000 cycles:  884530377 heartbeat IPC: 0.60037 cumulative IPC: 0.51080 (Simulation time: 0 hr 24 min 37 sec) 
Heartbeat CPU  0 instructions:  513000002 cycles:  886177882 heartbeat IPC: 0.60698 cumulative IPC: 0.51100 (Simulation time: 0 hr 24 min 40 sec) 
Heartbeat CPU  0 instructions:  514000001 cycles:  887810775 heartbeat IPC: 0.61241 cumulative IPC: 0.51120 (Simulation time: 0 hr 24 min 43 sec) 
Heartbeat CPU  0 instructions:  515000000 cycles:  889457207 heartbeat IPC: 0.60737 cumulative IPC: 0.51140 (Simulation time: 0 hr 24 min 46 sec) 
Heartbeat CPU  0 instructions:  516000000 cycles:  891122330 heartbeat IPC: 0.60056 cumulative IPC: 0.51158 (Simulation time: 0 hr 24 min 49 sec) 
Heartbeat CPU  0 instructions:  517000001 cycles:  892803994 heartbeat IPC: 0.59465 cumulative IPC: 0.51175 (Simulation time: 0 hr 24 min 52 sec) 
Heartbeat CPU  0 instructions:  518000001 cycles:  894524023 heartbeat IPC: 0.58139 cumulative IPC: 0.51190 (Simulation time: 0 hr 24 min 55 sec) 
Heartbeat CPU  0 instructions:  519000000 cycles:  895993616 heartbeat IPC: 0.68046 cumulative IPC: 0.51220 (Simulation time: 0 hr 24 min 58 sec) 
Heartbeat CPU  0 instructions:  520000000 cycles:  897449460 heartbeat IPC: 0.68689 cumulative IPC: 0.51251 (Simulation time: 0 hr 25 min 0 sec) 
Heartbeat CPU  0 instructions:  521000000 cycles:  898906756 heartbeat IPC: 0.68620 cumulative IPC: 0.51282 (Simulation time: 0 hr 25 min 3 sec) 
Heartbeat CPU  0 instructions:  522000002 cycles:  900363108 heartbeat IPC: 0.68665 cumulative IPC: 0.51313 (Simulation time: 0 hr 25 min 6 sec) 
Heartbeat CPU  0 instructions:  523000001 cycles:  901821653 heartbeat IPC: 0.68561 cumulative IPC: 0.51343 (Simulation time: 0 hr 25 min 9 sec) 
Heartbeat CPU  0 instructions:  524000000 cycles:  903277639 heartbeat IPC: 0.68682 cumulative IPC: 0.51374 (Simulation time: 0 hr 25 min 12 sec) 
Heartbeat CPU  0 instructions:  525000002 cycles:  904737294 heartbeat IPC: 0.68509 cumulative IPC: 0.51404 (Simulation time: 0 hr 25 min 14 sec) 
Heartbeat CPU  0 instructions:  526000000 cycles:  906193774 heartbeat IPC: 0.68659 cumulative IPC: 0.51435 (Simulation time: 0 hr 25 min 17 sec) 
Heartbeat CPU  0 instructions:  527000001 cycles:  907654808 heartbeat IPC: 0.68445 cumulative IPC: 0.51464 (Simulation time: 0 hr 25 min 20 sec) 
Heartbeat CPU  0 instructions:  528000000 cycles:  909115234 heartbeat IPC: 0.68473 cumulative IPC: 0.51494 (Simulation time: 0 hr 25 min 23 sec) 
Heartbeat CPU  0 instructions:  529000001 cycles:  910576264 heartbeat IPC: 0.68445 cumulative IPC: 0.51524 (Simulation time: 0 hr 25 min 26 sec) 
Heartbeat CPU  0 instructions:  530000001 cycles:  912039788 heartbeat IPC: 0.68328 cumulative IPC: 0.51554 (Simulation time: 0 hr 25 min 28 sec) 
Heartbeat CPU  0 instructions:  531000003 cycles:  913512695 heartbeat IPC: 0.67893 cumulative IPC: 0.51582 (Simulation time: 0 hr 25 min 31 sec) 
Heartbeat CPU  0 instructions:  532000000 cycles:  914994743 heartbeat IPC: 0.67474 cumulative IPC: 0.51611 (Simulation time: 0 hr 25 min 34 sec) 
Heartbeat CPU  0 instructions:  533000003 cycles:  916646769 heartbeat IPC: 0.60532 cumulative IPC: 0.51628 (Simulation time: 0 hr 25 min 37 sec) 
Heartbeat CPU  0 instructions:  534000003 cycles:  918118782 heartbeat IPC: 0.67934 cumulative IPC: 0.51657 (Simulation time: 0 hr 25 min 40 sec) 
Heartbeat CPU  0 instructions:  535000003 cycles:  919564735 heartbeat IPC: 0.69159 cumulative IPC: 0.51687 (Simulation time: 0 hr 25 min 43 sec) 
Heartbeat CPU  0 instructions:  536000000 cycles:  921004515 heartbeat IPC: 0.69455 cumulative IPC: 0.51717 (Simulation time: 0 hr 25 min 45 sec) 
Heartbeat CPU  0 instructions:  537000003 cycles:  922448024 heartbeat IPC: 0.69276 cumulative IPC: 0.51747 (Simulation time: 0 hr 25 min 48 sec) 
Heartbeat CPU  0 instructions:  538000003 cycles:  923893612 heartbeat IPC: 0.69176 cumulative IPC: 0.51777 (Simulation time: 0 hr 25 min 51 sec) 
Heartbeat CPU  0 instructions:  539000003 cycles:  925339824 heartbeat IPC: 0.69146 cumulative IPC: 0.51807 (Simulation time: 0 hr 25 min 54 sec) 
Heartbeat CPU  0 instructions:  540000000 cycles:  926786763 heartbeat IPC: 0.69111 cumulative IPC: 0.51836 (Simulation time: 0 hr 25 min 57 sec) 
Heartbeat CPU  0 instructions:  541000001 cycles:  928241010 heartbeat IPC: 0.68764 cumulative IPC: 0.51865 (Simulation time: 0 hr 25 min 59 sec) 
Heartbeat CPU  0 instructions:  542000001 cycles:  929689792 heartbeat IPC: 0.69023 cumulative IPC: 0.51894 (Simulation time: 0 hr 26 min 2 sec) 
Heartbeat CPU  0 instructions:  543000001 cycles:  931137349 heartbeat IPC: 0.69082 cumulative IPC: 0.51923 (Simulation time: 0 hr 26 min 5 sec) 
Heartbeat CPU  0 instructions:  544000000 cycles:  932588744 heartbeat IPC: 0.68899 cumulative IPC: 0.51952 (Simulation time: 0 hr 26 min 8 sec) 
Heartbeat CPU  0 instructions:  545000003 cycles:  934044632 heartbeat IPC: 0.68687 cumulative IPC: 0.51981 (Simulation time: 0 hr 26 min 11 sec) 
Heartbeat CPU  0 instructions:  546000003 cycles:  935516199 heartbeat IPC: 0.67955 cumulative IPC: 0.52008 (Simulation time: 0 hr 26 min 13 sec) 
Heartbeat CPU  0 instructions:  547000001 cycles:  936995263 heartbeat IPC: 0.67610 cumulative IPC: 0.52035 (Simulation time: 0 hr 26 min 16 sec) 
Heartbeat CPU  0 instructions:  548000000 cycles:  938466743 heartbeat IPC: 0.67959 cumulative IPC: 0.52062 (Simulation time: 0 hr 26 min 19 sec) 
Heartbeat CPU  0 instructions:  549000003 cycles:  941180804 heartbeat IPC: 0.36845 cumulative IPC: 0.52014 (Simulation time: 0 hr 26 min 22 sec) 
Heartbeat CPU  0 instructions:  550000000 cycles:  943954436 heartbeat IPC: 0.36054 cumulative IPC: 0.51963 (Simulation time: 0 hr 26 min 26 sec) 
Heartbeat CPU  0 instructions:  551000003 cycles:  946743171 heartbeat IPC: 0.35859 cumulative IPC: 0.51911 (Simulation time: 0 hr 26 min 29 sec) 
Heartbeat CPU  0 instructions:  552000000 cycles:  949516434 heartbeat IPC: 0.36058 cumulative IPC: 0.51861 (Simulation time: 0 hr 26 min 32 sec) 
Heartbeat CPU  0 instructions:  553000003 cycles:  952307716 heartbeat IPC: 0.35826 cumulative IPC: 0.51810 (Simulation time: 0 hr 26 min 35 sec) 
Heartbeat CPU  0 instructions:  554000001 cycles:  955097635 heartbeat IPC: 0.35843 cumulative IPC: 0.51759 (Simulation time: 0 hr 26 min 39 sec) 
Heartbeat CPU  0 instructions:  555000000 cycles:  957882801 heartbeat IPC: 0.35904 cumulative IPC: 0.51709 (Simulation time: 0 hr 26 min 42 sec) 
Heartbeat CPU  0 instructions:  556000000 cycles:  960672208 heartbeat IPC: 0.35850 cumulative IPC: 0.51659 (Simulation time: 0 hr 26 min 45 sec) 
Heartbeat CPU  0 instructions:  557000001 cycles:  963460637 heartbeat IPC: 0.35863 cumulative IPC: 0.51609 (Simulation time: 0 hr 26 min 48 sec) 
Heartbeat CPU  0 instructions:  558000003 cycles:  966246226 heartbeat IPC: 0.35899 cumulative IPC: 0.51560 (Simulation time: 0 hr 26 min 52 sec) 
Heartbeat CPU  0 instructions:  559000002 cycles:  969026617 heartbeat IPC: 0.35966 cumulative IPC: 0.51511 (Simulation time: 0 hr 26 min 55 sec) 
Heartbeat CPU  0 instructions:  560000000 cycles:  971801907 heartbeat IPC: 0.36032 cumulative IPC: 0.51463 (Simulation time: 0 hr 26 min 58 sec) 
Heartbeat CPU  0 instructions:  561000003 cycles:  974734573 heartbeat IPC: 0.34099 cumulative IPC: 0.51406 (Simulation time: 0 hr 27 min 1 sec) 
Heartbeat CPU  0 instructions:  562000001 cycles:  977537503 heartbeat IPC: 0.35677 cumulative IPC: 0.51357 (Simulation time: 0 hr 27 min 5 sec) 
Heartbeat CPU  0 instructions:  563000003 cycles:  980340649 heartbeat IPC: 0.35674 cumulative IPC: 0.51308 (Simulation time: 0 hr 27 min 8 sec) 
Heartbeat CPU  0 instructions:  564000000 cycles:  983152943 heartbeat IPC: 0.35558 cumulative IPC: 0.51260 (Simulation time: 0 hr 27 min 11 sec) 
Heartbeat CPU  0 instructions:  565000001 cycles:  985966921 heartbeat IPC: 0.35537 cumulative IPC: 0.51211 (Simulation time: 0 hr 27 min 14 sec) 
Heartbeat CPU  0 instructions:  566000001 cycles:  988780448 heartbeat IPC: 0.35543 cumulative IPC: 0.51162 (Simulation time: 0 hr 27 min 18 sec) 
Heartbeat CPU  0 instructions:  567000001 cycles:  991602156 heartbeat IPC: 0.35440 cumulative IPC: 0.51114 (Simulation time: 0 hr 27 min 21 sec) 
Heartbeat CPU  0 instructions:  568000000 cycles:  994413763 heartbeat IPC: 0.35567 cumulative IPC: 0.51066 (Simulation time: 0 hr 27 min 24 sec) 
Heartbeat CPU  0 instructions:  569000001 cycles:  997225280 heartbeat IPC: 0.35568 cumulative IPC: 0.51019 (Simulation time: 0 hr 27 min 27 sec) 
Heartbeat CPU  0 instructions:  570000000 cycles: 1000034852 heartbeat IPC: 0.35593 cumulative IPC: 0.50972 (Simulation time: 0 hr 27 min 31 sec) 
Heartbeat CPU  0 instructions:  571000002 cycles: 1002853131 heartbeat IPC: 0.35483 cumulative IPC: 0.50925 (Simulation time: 0 hr 27 min 34 sec) 
Heartbeat CPU  0 instructions:  572000000 cycles: 1005664972 heartbeat IPC: 0.35564 cumulative IPC: 0.50878 (Simulation time: 0 hr 27 min 37 sec) 
Heartbeat CPU  0 instructions:  573000000 cycles: 1007879910 heartbeat IPC: 0.45148 cumulative IPC: 0.50864 (Simulation time: 0 hr 27 min 40 sec) 
Heartbeat CPU  0 instructions:  574000002 cycles: 1009523280 heartbeat IPC: 0.60851 cumulative IPC: 0.50882 (Simulation time: 0 hr 27 min 43 sec) 
Heartbeat CPU  0 instructions:  575000000 cycles: 1011170514 heartbeat IPC: 0.60708 cumulative IPC: 0.50899 (Simulation time: 0 hr 27 min 46 sec) 
Heartbeat CPU  0 instructions:  576000000 cycles: 1012822073 heartbeat IPC: 0.60549 cumulative IPC: 0.50916 (Simulation time: 0 hr 27 min 49 sec) 
Heartbeat CPU  0 instructions:  577000001 cycles: 1014456008 heartbeat IPC: 0.61202 cumulative IPC: 0.50934 (Simulation time: 0 hr 27 min 52 sec) 
Heartbeat CPU  0 instructions:  578000000 cycles: 1016115221 heartbeat IPC: 0.60269 cumulative IPC: 0.50951 (Simulation time: 0 hr 27 min 55 sec) 
Heartbeat CPU  0 instructions:  579000000 cycles: 1017795890 heartbeat IPC: 0.59500 cumulative IPC: 0.50966 (Simulation time: 0 hr 27 min 57 sec) 
Heartbeat CPU  0 instructions:  580000000 cycles: 1019458170 heartbeat IPC: 0.60158 cumulative IPC: 0.50982 (Simulation time: 0 hr 28 min 0 sec) 
Heartbeat CPU  0 instructions:  581000001 cycles: 1021135693 heartbeat IPC: 0.59612 cumulative IPC: 0.50998 (Simulation time: 0 hr 28 min 3 sec) 
Heartbeat CPU  0 instructions:  582000003 cycles: 1022827916 heartbeat IPC: 0.59094 cumulative IPC: 0.51012 (Simulation time: 0 hr 28 min 6 sec) 
Heartbeat CPU  0 instructions:  583000000 cycles: 1024529112 heartbeat IPC: 0.58782 cumulative IPC: 0.51026 (Simulation time: 0 hr 28 min 9 sec) 
Heartbeat CPU  0 instructions:  584000000 cycles: 1026223510 heartbeat IPC: 0.59018 cumulative IPC: 0.51040 (Simulation time: 0 hr 28 min 12 sec) 
Heartbeat CPU  0 instructions:  585000002 cycles: 1028176144 heartbeat IPC: 0.51213 cumulative IPC: 0.51041 (Simulation time: 0 hr 28 min 15 sec) 
Heartbeat CPU  0 instructions:  586000001 cycles: 1029865501 heartbeat IPC: 0.59194 cumulative IPC: 0.51055 (Simulation time: 0 hr 28 min 18 sec) 
Heartbeat CPU  0 instructions:  587000000 cycles: 1031556682 heartbeat IPC: 0.59130 cumulative IPC: 0.51070 (Simulation time: 0 hr 28 min 21 sec) 
Heartbeat CPU  0 instructions:  588000000 cycles: 1033254950 heartbeat IPC: 0.58884 cumulative IPC: 0.51083 (Simulation time: 0 hr 28 min 23 sec) 
Heartbeat CPU  0 instructions:  589000001 cycles: 1034952995 heartbeat IPC: 0.58891 cumulative IPC: 0.51097 (Simulation time: 0 hr 28 min 26 sec) 
Heartbeat CPU  0 instructions:  590000001 cycles: 1036647674 heartbeat IPC: 0.59008 cumulative IPC: 0.51111 (Simulation time: 0 hr 28 min 29 sec) 
Heartbeat CPU  0 instructions:  591000000 cycles: 1038356953 heartbeat IPC: 0.58504 cumulative IPC: 0.51124 (Simulation time: 0 hr 28 min 32 sec) 
Heartbeat CPU  0 instructions:  592000000 cycles: 1040064552 heartbeat IPC: 0.58562 cumulative IPC: 0.51138 (Simulation time: 0 hr 28 min 35 sec) 
Heartbeat CPU  0 instructions:  593000002 cycles: 1041786055 heartbeat IPC: 0.58089 cumulative IPC: 0.51150 (Simulation time: 0 hr 28 min 38 sec) 
Heartbeat CPU  0 instructions:  594000001 cycles: 1043469407 heartbeat IPC: 0.59405 cumulative IPC: 0.51164 (Simulation time: 0 hr 28 min 41 sec) 
Heartbeat CPU  0 instructions:  595000002 cycles: 1045157475 heartbeat IPC: 0.59239 cumulative IPC: 0.51179 (Simulation time: 0 hr 28 min 44 sec) 
Heartbeat CPU  0 instructions:  596000000 cycles: 1046841569 heartbeat IPC: 0.59379 cumulative IPC: 0.51193 (Simulation time: 0 hr 28 min 47 sec) 
Heartbeat CPU  0 instructions:  597000003 cycles: 1048608191 heartbeat IPC: 0.56605 cumulative IPC: 0.51203 (Simulation time: 0 hr 28 min 50 sec) 
Heartbeat CPU  0 instructions:  598000002 cycles: 1050080220 heartbeat IPC: 0.67933 cumulative IPC: 0.51228 (Simulation time: 0 hr 28 min 52 sec) 
Heartbeat CPU  0 instructions:  599000002 cycles: 1051544900 heartbeat IPC: 0.68274 cumulative IPC: 0.51254 (Simulation time: 0 hr 28 min 55 sec) 
Heartbeat CPU  0 instructions:  600000000 cycles: 1053007300 heartbeat IPC: 0.68381 cumulative IPC: 0.51279 (Simulation time: 0 hr 28 min 58 sec) 
Finished CPU 0 instructions: 500000000 cycles: 975051340 cumulative IPC: 0.51279 (Simulation time: 0 hr 28 min 58 sec) 

ChampSim completed all CPUs

[ROI Statistics]
Core_0_instructions 500000000
Core_0_cycles 975051340
Core_0_IPC 0.51279

Core_0_branch_prediction_accuracy 99.79948
Core_0_branch_MPKI 0.03552
Core_0_average_ROB_occupancy_at_mispredict 248.18911

Core_0_L1D_total_access 242977711
Core_0_L1D_total_hit 230700039
Core_0_L1D_total_miss 12277672
Core_0_L1D_loads 218712007
Core_0_L1D_load_hit 206609863
Core_0_L1D_load_miss 12102144
Core_0_L1D_RFOs 24265704
Core_0_L1D_RFO_hit 24090176
Core_0_L1D_RFO_miss 175528
Core_0_L1D_prefetches 0
Core_0_L1D_prefetch_hit 0
Core_0_L1D_prefetch_miss 0
Core_0_L1D_writebacks 0
Core_0_L1D_writeback_hit 0
Core_0_L1D_writeback_miss 0
Core_0_L1D_prefetch_requested 0
Core_0_L1D_prefetch_dropped 0
Core_0_L1D_prefetch_issued 0
Core_0_L1D_prefetch_filled 0
Core_0_L1D_prefetch_useful 0
Core_0_L1D_prefetch_useless 0
Core_0_L1D_prefetch_late 0
Core_0_L1D_average_miss_latency 75.54473

Core_0_L1D_rq_access 258727962
Core_0_L1D_rq_forward 0
Core_0_L1D_rq_merged 39020941
Core_0_L1D_rq_to_cache 219707021
Core_0_L1D_rq_full 0

Core_0_L1D_wq_access 25182875
Core_0_L1D_wq_forward 0
Core_0_L1D_wq_merged 212771
Core_0_L1D_wq_to_cache 24970104
Core_0_L1D_wq_full 318167

Core_0_L1D_pq_access 0
Core_0_L1D_pq_forward 0
Core_0_L1D_pq_merged 0
Core_0_L1D_pq_to_cache 0
Core_0_L1D_pq_full 0

Core_0_L1D_acc_epochs 979580
Core_0_L1D_acc_level_0 979580
Core_0_L1D_acc_level_1 0
Core_0_L1D_acc_level_2 0
Core_0_L1D_acc_level_3 0
Core_0_L1D_acc_level_4 0
Core_0_L1D_acc_level_5 0
Core_0_L1D_acc_level_6 0
Core_0_L1D_acc_level_7 0
Core_0_L1D_acc_level_8 0
Core_0_L1D_acc_level_9 0

Core_0_L1I_total_access 131350806
Core_0_L1I_total_hit 131350157
Core_0_L1I_total_miss 649
Core_0_L1I_loads 131350806
Core_0_L1I_load_hit 131350157
Core_0_L1I_load_miss 649
Core_0_L1I_RFOs 0
Core_0_L1I_RFO_hit 0
Core_0_L1I_RFO_miss 0
Core_0_L1I_prefetches 0
Core_0_L1I_prefetch_hit 0
Core_0_L1I_prefetch_miss 0
Core_0_L1I_writebacks 0
Core_0_L1I_writeback_hit 0
Core_0_L1I_writeback_miss 0
Core_0_L1I_prefetch_requested 0
Core_0_L1I_prefetch_dropped 0
Core_0_L1I_prefetch_issued 0
Core_0_L1I_prefetch_filled 0
Core_0_L1I_prefetch_useful 0
Core_0_L1I_prefetch_useless 0
Core_0_L1I_prefetch_late 0
Core_0_L1I_average_miss_latency 282.98613

Core_0_L1I_rq_access 500000003
Core_0_L1I_rq_forward 0
Core_0_L1I_rq_merged 368648625
Core_0_L1I_rq_to_cache 131351378
Core_0_L1I_rq_full 0

Core_0_L1I_wq_access 0
Core_0_L1I_wq_forward 0
Core_0_L1I_wq_merged 0
Core_0_L1I_wq_to_cache 0
Core_0_L1I_wq_full 0

Core_0_L1I_pq_access 0
Core_0_L1I_pq_forward 0
Core_0_L1I_pq_merged 0
Core_0_L1I_pq_to_cache 0
Core_0_L1I_pq_full 0

Core_0_L1I_acc_epochs 979580
Core_0_L1I_acc_level_0 979580
Core_0_L1I_acc_level_1 0
Core_0_L1I_acc_level_2 0
Core_0_L1I_acc_level_3 0
Core_0_L1I_acc_level_4 0
Core_0_L1I_acc_level_5 0
Core_0_L1I_acc_level_6 0
Core_0_L1I_acc_level_7 0
Core_0_L1I_acc_level_8 0
Core_0_L1I_acc_level_9 0

Core_0_L2C_total_access 14898133
Core_0_L2C_total_hit 10693473
Core_0_L2C_total_miss 4204660
Core_0_L2C_loads 12102520
Core_0_L2C_load_hit 8068274
Core_0_L2C_load_miss 4034246
Core_0_L2C_RFOs 175493
Core_0_L2C_RFO_hit 5593
Core_0_L2C_RFO_miss 169900
Core_0_L2C_prefetches 0
Core_0_L2C_prefetch_hit 0
Core_0_L2C_prefetch_miss 0
Core_0_L2C_writebacks 2620120
Core_0_L2C_writeback_hit 2619606
Core_0_L2C_writeback_miss 514
Core_0_L2C_prefetch_requested 0
Core_0_L2C_prefetch_dropped 0
Core_0_L2C_prefetch_issued 0
Core_0_L2C_prefetch_filled 0
Core_0_L2C_prefetch_useful 0
Core_0_L2C_prefetch_useless 0
Core_0_L2C_prefetch_late 0
Core_0_L2C_average_miss_latency 174.11168

Core_0_L2C_rq_access 12278321
Core_0_L2C_rq_forward 0
Core_0_L2C_rq_merged 0
Core_0_L2C_rq_to_cache 12278013
Core_0_L2C_rq_full 0

Core_0_L2C_wq_access 2620120
Core_0_L2C_wq_forward 308
Core_0_L2C_wq_merged 0
Core_0_L2C_wq_to_cache 2620120
Core_0_L2C_wq_full 0

Core_0_L2C_pq_access 0
Core_0_L2C_pq_forward 0
Core_0_L2C_pq_merged 0
Core_0_L2C_pq_to_cache 0
Core_0_L2C_pq_full 0

Core_0_L2C_acc_epochs 979580
Core_0_L2C_acc_level_0 979580
Core_0_L2C_acc_level_1 0
Core_0_L2C_acc_level_2 0
Core_0_L2C_acc_level_3 0
Core_0_L2C_acc_level_4 0
Core_0_L2C_acc_level_5 0
Core_0_L2C_acc_level_6 0
Core_0_L2C_acc_level_7 0
Core_0_L2C_acc_level_8 0
Core_0_L2C_acc_level_9 0

Core_0_LLC_total_access 5314598
Core_0_LLC_total_hit 1515008
Core_0_LLC_total_miss 3799590
Core_0_LLC_loads 4034197
Core_0_LLC_load_hit 849159
Core_0_LLC_load_miss 3185038
Core_0_LLC_RFOs 169900
Core_0_LLC_RFO_hit 149620
Core_0_LLC_RFO_miss 20280
Core_0_LLC_prefetches 0
Core_0_LLC_prefetch_hit 0
Core_0_LLC_prefetch_miss 0
Core_0_LLC_writebacks 1110501
Core_0_LLC_writeback_hit 516229
Core_0_LLC_writeback_miss 594272
Core_0_LLC_prefetch_requested 0
Core_0_LLC_prefetch_dropped 0
Core_0_LLC_prefetch_issued 0
Core_0_LLC_prefetch_filled 0
Core_0_LLC_prefetch_useful 0
Core_0_LLC_prefetch_useless 0
Core_0_LLC_prefetch_late 0
Core_0_LLC_average_miss_latency 157.02720

Core_0_LLC_rq_access 4204146
Core_0_LLC_rq_forward 0
Core_0_LLC_rq_merged 0
Core_0_LLC_rq_to_cache 4204097
Core_0_LLC_rq_full 0

Core_0_LLC_wq_access 1110501
Core_0_LLC_wq_forward 49
Core_0_LLC_wq_merged 0
Core_0_LLC_wq_to_cache 1110501
Core_0_LLC_wq_full 0

Core_0_LLC_pq_access 0
Core_0_LLC_pq_forward 0
Core_0_LLC_pq_merged 0
Core_0_LLC_pq_to_cache 0
Core_0_LLC_pq_full 0

Core_0_LLC_acc_epochs 1028328
Core_0_LLC_acc_level_0 1028328
Core_0_LLC_acc_level_1 0
Core_0_LLC_acc_level_2 0
Core_0_LLC_acc_level_3 0
Core_0_LLC_acc_level_4 0
Core_0_LLC_acc_level_5 0
Core_0_LLC_acc_level_6 0
Core_0_LLC_acc_level_7 0
Core_0_LLC_acc_level_8 0
Core_0_LLC_acc_level_9 0

Core_0_major_page_fault 0
Core_0_minor_page_fault 102074

Channel_0_RQ_row_buffer_hit 1024486
Channel_0_RQ_row_buffer_miss 2180832
Channel_0_WQ_row_buffer_hit 173788
Channel_0_WQ_row_buffer_miss 626584
Channel_0_WQ_full 0
Channel_0_dbus_congested 809845

avg_congested_cycle 16

DRAM_bw_pochs 4113310
DRAM_bw_level_0 3546107
DRAM_bw_level_1 503014
DRAM_bw_level_2 43136
DRAM_bw_level_3 21053
