*************************************************
   ChampSim Multicore Out-of-Order Simulator
   Last compiled: Dec 11 2024 17:59:53
*************************************************
parsing config file: /home/functionmain/桌面/Pythia/config/pythia.ini

trace_0 /home/functionmain/桌面/Pythia/traces/459.GemsFDTD-1418B.champsimtrace.xz
adding L2C_PREFETCHER: Scooby
Initialize SHIP state
warmup_instructions 100000000
simulation_instructions 500000000
champsim_seed 272
measure_ipc 0
measure_ipc_epoch 1000
measure_dram_bw 1
measure_dram_bw_epoch 256
measure_cache_acc 1
measure_cache_acc_epoch 1024
l1d_perfect 0
l2c_perfect 0
llc_perfect 0
l1d_semi_perfect 0
l2c_semi_perfect 0
llc_semi_perfect 0
semi_perfect_cache_page_buffer_size 64

num_cpus 1
cpu_freq 4000
dram_io_freq 300
page_size 4096
block_size 64
max_read_per_cycle 8
max_fill_per_cycle 1
dram_channels 1
log2_dram_channels 0
dram_ranks 1
dram_banks 8
dram_rows 65536
dram_columns 128
dram_row_size 8
dram_size 4096
dram_pages 1048576

fetch_width 6
decode_width 6
exec_width 4
lq_width 2
sq_width 2
retire_width 4
scheduler_size 128
branch_mispredict_penalty 20
rob_size 256
lq_size 72
sq_size 56
num_instr_destinations_sparc 4
num_instr_destinations 2
num_instr_sources 4

itlb_set 16
itlb_way 8
itlb_rq_size 16
itlb_wq_size 16
itlb_pq_size 0
itlb_mshr_size 8
itlb_latency 1

dtlb_set 16
dtlb_way 4
dtlb_rq_size 16
dtlb_wq_size 16
dtlb_pq_size 0
dtlb_mshr_size 8
dtlb_latency 1

stlb_set 128
stlb_way 12
stlb_rq_size 32
stlb_wq_size 32
stlb_pq_size 0
stlb_mshr_size 16
stlb_latency 8

l1i_size 32
l1i_set 64
l1i_way 8
l1i_rq_size 64
l1i_wq_size 64
l1i_pq_size 8
l1i_mshr_size 8
l1i_latency 1

l1d_size 32
l1d_set 64
l1d_way 8
l1d_rq_size 64
l1d_wq_size 64
l1d_pq_size 8
l1d_mshr_size 16
l1d_latency 4

l2c_size 256
l2c_set 512
l2c_way 8
l2c_rq_size 32
l2c_wq_size 32
l2c_pq_size 32
l2c_mshr_size 32
l2c_latency 10

llc_size 2048
llc_set 2048
llc_way 16
llc_rq_size 32
llc_wq_size 32
llc_pq_size 32
llc_mshr_size 64
llc_latency 20

dram_channel_width 8
dram_wq_size 64
dram_rq_size 64
tRP 15
tRCD 15
tCAS 12.5
dram_dbus_turn_around_time 30
dram_write_high_wm 56
dram_write_low_wm 48
min_dram_writes_per_switch 16
dram_mtps 300
dram_dbus_return_time 106

scooby_alpha 0.0065088
scooby_gamma 0.556301
scooby_epsilon 0.00182284
scooby_state_num_bits 10
scooby_max_states 1024
scooby_seed 200
scooby_policy EGreedy
scooby_learning_type SARSA
scooby_actions 1,3,4,5,10,11,12,22,23,30,32,-1,-3,-6,0,
scooby_max_actions 15
scooby_pt_size 256
scooby_st_size 64
scooby_max_pcs 5
scooby_max_offsets 5
scooby_max_deltas 5
scooby_reward_none -4
scooby_reward_incorrect -8
scooby_reward_correct_untimely 12
scooby_reward_correct_timely 20
scooby_brain_zero_init 0
scooby_enable_reward_all 0
scooby_enable_track_multiple 0
scooby_enable_reward_out_of_bounds 1
scooby_reward_out_of_bounds -12
scooby_state_type 1
scooby_state_hash_type 11
scooby_access_debug 0
scooby_print_access_debug 0
scooby_print_access_debug_pc deadbeef
scooby_print_access_debug_pc_count 0
scooby_print_trace 0
scooby_enable_state_action_stats 1
scooby_enable_reward_tracker_hit 0
scooby_reward_tracker_hit -2
scooby_enable_featurewise_engine 1
scooby_pref_degree 1
scooby_enable_dyn_degree 1
scooby_max_to_avg_q_thresholds 0.5,1,2,
scooby_dyn_degrees 1,2,4,4,
scooby_multi_deg_select_type 2
scooby_last_pref_offset_conf_thresholds 1,3,8,
scooby_dyn_degrees_type2 1,2,4,6,
scooby_action_tracker_size 2
scooby_high_bw_thresh 4
scooby_enable_hbw_reward 1
scooby_reward_hbw_correct_timely 20
scooby_reward_hbw_correct_untimely 12
scooby_reward_hbw_incorrect -14
scooby_reward_hbw_none -2
scooby_reward_hbw_out_of_bounds -12
scooby_reward_hbw_tracker_hit -2
scooby_last_pref_offset_conf_thresholds_hbw 1,3,8,
scooby_dyn_degrees_type2_hbw 1,2,4,6,

le_enable_trace 0
le_trace_interval 0
le_trace_file_name 
le_trace_state 0
le_enable_score_plot 0
le_plot_file_name 
le_plot_actions 
le_enable_action_trace 0
le_action_trace_interval 0
le_action_trace_name 
le_enable_action_plot 0

le_featurewise_active_features PC, PC_Delta
le_featurewise_num_tilings 3,3,
le_featurewise_num_tiles 128,128,
le_featurewise_hash_types 2,2,
le_featurewise_enable_tiling_offset 1,1,
le_featurewise_max_q_thresh 0.5
le_featurewise_enable_action_fallback 1
le_featurewise_feature_weights 1,1,
le_featurewise_enable_dynamic_weight 0
le_featurewise_weight_gradient 0.001
le_featurewise_disable_adjust_weight_all_features_align 1
le_featurewise_selective_update 0
le_featurewise_pooling_type 2
le_featurewise_enable_dyn_action_fallback 1
le_featurewise_bw_acc_check_level 1
le_featurewise_acc_thresh 2
le_featurewise_enable_trace 0
le_featurewise_trace_feature_type 0
le_featurewise_trace_feature 
le_featurewise_trace_interval 0
le_featurewise_trace_record_count 0
le_featurewise_trace_file_name 
le_featurewise_enable_score_plot 0
le_featurewise_plot_actions 
le_featurewise_plot_file_name 


Heartbeat CPU  0 instructions:    1000001 cycles:     778576 heartbeat IPC: 1.28440 cumulative IPC: 1.28440 (Simulation time: 0 hr 0 min 3 sec) 
Heartbeat CPU  0 instructions:    2000002 cycles:    1557279 heartbeat IPC: 1.28419 cumulative IPC: 1.28429 (Simulation time: 0 hr 0 min 5 sec) 
Heartbeat CPU  0 instructions:    3000003 cycles:    2335740 heartbeat IPC: 1.28459 cumulative IPC: 1.28439 (Simulation time: 0 hr 0 min 8 sec) 
Heartbeat CPU  0 instructions:    4000000 cycles:    3114360 heartbeat IPC: 1.28432 cumulative IPC: 1.28437 (Simulation time: 0 hr 0 min 11 sec) 
Heartbeat CPU  0 instructions:    5000001 cycles:    3893021 heartbeat IPC: 1.28426 cumulative IPC: 1.28435 (Simulation time: 0 hr 0 min 14 sec) 
Heartbeat CPU  0 instructions:    6000002 cycles:    4671596 heartbeat IPC: 1.28440 cumulative IPC: 1.28436 (Simulation time: 0 hr 0 min 16 sec) 
Heartbeat CPU  0 instructions:    7000003 cycles:    5450147 heartbeat IPC: 1.28444 cumulative IPC: 1.28437 (Simulation time: 0 hr 0 min 19 sec) 
Heartbeat CPU  0 instructions:    8000000 cycles:    6228404 heartbeat IPC: 1.28492 cumulative IPC: 1.28444 (Simulation time: 0 hr 0 min 22 sec) 
Heartbeat CPU  0 instructions:    9000002 cycles:    7007016 heartbeat IPC: 1.28434 cumulative IPC: 1.28443 (Simulation time: 0 hr 0 min 24 sec) 
Heartbeat CPU  0 instructions:   10000003 cycles:    7785549 heartbeat IPC: 1.28447 cumulative IPC: 1.28443 (Simulation time: 0 hr 0 min 27 sec) 
Heartbeat CPU  0 instructions:   11000000 cycles:    8563931 heartbeat IPC: 1.28471 cumulative IPC: 1.28446 (Simulation time: 0 hr 0 min 30 sec) 
Heartbeat CPU  0 instructions:   12000000 cycles:    9342300 heartbeat IPC: 1.28474 cumulative IPC: 1.28448 (Simulation time: 0 hr 0 min 33 sec) 
Heartbeat CPU  0 instructions:   13000003 cycles:   10121088 heartbeat IPC: 1.28405 cumulative IPC: 1.28445 (Simulation time: 0 hr 0 min 35 sec) 
Heartbeat CPU  0 instructions:   14000000 cycles:   10899591 heartbeat IPC: 1.28451 cumulative IPC: 1.28445 (Simulation time: 0 hr 0 min 38 sec) 
Heartbeat CPU  0 instructions:   15000001 cycles:   11678098 heartbeat IPC: 1.28451 cumulative IPC: 1.28446 (Simulation time: 0 hr 0 min 41 sec) 
Heartbeat CPU  0 instructions:   16000000 cycles:   12456829 heartbeat IPC: 1.28414 cumulative IPC: 1.28444 (Simulation time: 0 hr 0 min 44 sec) 
Heartbeat CPU  0 instructions:   17000003 cycles:   13235288 heartbeat IPC: 1.28459 cumulative IPC: 1.28445 (Simulation time: 0 hr 0 min 46 sec) 
Heartbeat CPU  0 instructions:   18000000 cycles:   14013629 heartbeat IPC: 1.28478 cumulative IPC: 1.28446 (Simulation time: 0 hr 0 min 49 sec) 
Heartbeat CPU  0 instructions:   19000003 cycles:   14792222 heartbeat IPC: 1.28437 cumulative IPC: 1.28446 (Simulation time: 0 hr 0 min 52 sec) 
Heartbeat CPU  0 instructions:   20000000 cycles:   15570709 heartbeat IPC: 1.28454 cumulative IPC: 1.28446 (Simulation time: 0 hr 0 min 55 sec) 
Heartbeat CPU  0 instructions:   21000003 cycles:   16349542 heartbeat IPC: 1.28398 cumulative IPC: 1.28444 (Simulation time: 0 hr 0 min 57 sec) 
Heartbeat CPU  0 instructions:   22000000 cycles:   17127974 heartbeat IPC: 1.28463 cumulative IPC: 1.28445 (Simulation time: 0 hr 1 min 0 sec) 
Heartbeat CPU  0 instructions:   23000003 cycles:   17906553 heartbeat IPC: 1.28439 cumulative IPC: 1.28445 (Simulation time: 0 hr 1 min 3 sec) 
Heartbeat CPU  0 instructions:   24000000 cycles:   18685299 heartbeat IPC: 1.28411 cumulative IPC: 1.28443 (Simulation time: 0 hr 1 min 6 sec) 
Heartbeat CPU  0 instructions:   25000001 cycles:   19463574 heartbeat IPC: 1.28489 cumulative IPC: 1.28445 (Simulation time: 0 hr 1 min 8 sec) 
Heartbeat CPU  0 instructions:   26000001 cycles:   20242015 heartbeat IPC: 1.28462 cumulative IPC: 1.28446 (Simulation time: 0 hr 1 min 11 sec) 
Heartbeat CPU  0 instructions:   27000002 cycles:   21020615 heartbeat IPC: 1.28436 cumulative IPC: 1.28445 (Simulation time: 0 hr 1 min 14 sec) 
Heartbeat CPU  0 instructions:   28000000 cycles:   21799112 heartbeat IPC: 1.28452 cumulative IPC: 1.28446 (Simulation time: 0 hr 1 min 16 sec) 
Heartbeat CPU  0 instructions:   29000001 cycles:   22577586 heartbeat IPC: 1.28457 cumulative IPC: 1.28446 (Simulation time: 0 hr 1 min 19 sec) 
Heartbeat CPU  0 instructions:   30000002 cycles:   23356273 heartbeat IPC: 1.28421 cumulative IPC: 1.28445 (Simulation time: 0 hr 1 min 22 sec) 
Heartbeat CPU  0 instructions:   31000003 cycles:   24134821 heartbeat IPC: 1.28444 cumulative IPC: 1.28445 (Simulation time: 0 hr 1 min 25 sec) 
Heartbeat CPU  0 instructions:   32000000 cycles:   24913302 heartbeat IPC: 1.28455 cumulative IPC: 1.28445 (Simulation time: 0 hr 1 min 27 sec) 
Heartbeat CPU  0 instructions:   33000003 cycles:   25691834 heartbeat IPC: 1.28447 cumulative IPC: 1.28445 (Simulation time: 0 hr 1 min 30 sec) 
Heartbeat CPU  0 instructions:   34000002 cycles:   26460987 heartbeat IPC: 1.30013 cumulative IPC: 1.28491 (Simulation time: 0 hr 1 min 33 sec) 
Heartbeat CPU  0 instructions:   35000001 cycles:   27243101 heartbeat IPC: 1.27858 cumulative IPC: 1.28473 (Simulation time: 0 hr 1 min 36 sec) 
Heartbeat CPU  0 instructions:   36000000 cycles:   28023745 heartbeat IPC: 1.28099 cumulative IPC: 1.28462 (Simulation time: 0 hr 1 min 38 sec) 
Heartbeat CPU  0 instructions:   37000000 cycles:   28804377 heartbeat IPC: 1.28101 cumulative IPC: 1.28453 (Simulation time: 0 hr 1 min 42 sec) 
Heartbeat CPU  0 instructions:   38000001 cycles:   29584717 heartbeat IPC: 1.28149 cumulative IPC: 1.28445 (Simulation time: 0 hr 1 min 44 sec) 
Heartbeat CPU  0 instructions:   39000003 cycles:   30365225 heartbeat IPC: 1.28122 cumulative IPC: 1.28436 (Simulation time: 0 hr 1 min 47 sec) 
Heartbeat CPU  0 instructions:   40000000 cycles:   31146096 heartbeat IPC: 1.28062 cumulative IPC: 1.28427 (Simulation time: 0 hr 1 min 50 sec) 
Heartbeat CPU  0 instructions:   41000000 cycles:   31927010 heartbeat IPC: 1.28055 cumulative IPC: 1.28418 (Simulation time: 0 hr 1 min 52 sec) 
Heartbeat CPU  0 instructions:   42000002 cycles:   32707431 heartbeat IPC: 1.28136 cumulative IPC: 1.28411 (Simulation time: 0 hr 1 min 55 sec) 
Heartbeat CPU  0 instructions:   43000000 cycles:   33487519 heartbeat IPC: 1.28190 cumulative IPC: 1.28406 (Simulation time: 0 hr 1 min 57 sec) 
Heartbeat CPU  0 instructions:   44000000 cycles:   34266939 heartbeat IPC: 1.28301 cumulative IPC: 1.28404 (Simulation time: 0 hr 2 min 0 sec) 
Heartbeat CPU  0 instructions:   45000000 cycles:   35046632 heartbeat IPC: 1.28256 cumulative IPC: 1.28400 (Simulation time: 0 hr 2 min 3 sec) 
Heartbeat CPU  0 instructions:   46000002 cycles:   35826250 heartbeat IPC: 1.28268 cumulative IPC: 1.28397 (Simulation time: 0 hr 2 min 5 sec) 
Heartbeat CPU  0 instructions:   47000001 cycles:   36605228 heartbeat IPC: 1.28373 cumulative IPC: 1.28397 (Simulation time: 0 hr 2 min 8 sec) 
Heartbeat CPU  0 instructions:   48000000 cycles:   37384052 heartbeat IPC: 1.28399 cumulative IPC: 1.28397 (Simulation time: 0 hr 2 min 11 sec) 
Heartbeat CPU  0 instructions:   49000001 cycles:   38163911 heartbeat IPC: 1.28228 cumulative IPC: 1.28394 (Simulation time: 0 hr 2 min 13 sec) 
Heartbeat CPU  0 instructions:   50000002 cycles:   38943706 heartbeat IPC: 1.28239 cumulative IPC: 1.28390 (Simulation time: 0 hr 2 min 16 sec) 
Heartbeat CPU  0 instructions:   51000000 cycles:   39722591 heartbeat IPC: 1.28388 cumulative IPC: 1.28390 (Simulation time: 0 hr 2 min 18 sec) 
Heartbeat CPU  0 instructions:   52000000 cycles:   40501523 heartbeat IPC: 1.28381 cumulative IPC: 1.28390 (Simulation time: 0 hr 2 min 21 sec) 
Heartbeat CPU  0 instructions:   53000002 cycles:   41282275 heartbeat IPC: 1.28082 cumulative IPC: 1.28384 (Simulation time: 0 hr 2 min 24 sec) 
Heartbeat CPU  0 instructions:   54000000 cycles:   42062678 heartbeat IPC: 1.28139 cumulative IPC: 1.28380 (Simulation time: 0 hr 2 min 26 sec) 
Heartbeat CPU  0 instructions:   55000003 cycles:   42842662 heartbeat IPC: 1.28208 cumulative IPC: 1.28377 (Simulation time: 0 hr 2 min 29 sec) 
Heartbeat CPU  0 instructions:   56000000 cycles:   43622931 heartbeat IPC: 1.28161 cumulative IPC: 1.28373 (Simulation time: 0 hr 2 min 31 sec) 
Heartbeat CPU  0 instructions:   57000001 cycles:   44404130 heartbeat IPC: 1.28008 cumulative IPC: 1.28366 (Simulation time: 0 hr 2 min 34 sec) 
Heartbeat CPU  0 instructions:   58000000 cycles:   45184761 heartbeat IPC: 1.28101 cumulative IPC: 1.28362 (Simulation time: 0 hr 2 min 37 sec) 
Heartbeat CPU  0 instructions:   59000001 cycles:   45965143 heartbeat IPC: 1.28142 cumulative IPC: 1.28358 (Simulation time: 0 hr 2 min 40 sec) 
Heartbeat CPU  0 instructions:   60000000 cycles:   46745651 heartbeat IPC: 1.28122 cumulative IPC: 1.28354 (Simulation time: 0 hr 2 min 42 sec) 
Heartbeat CPU  0 instructions:   61000003 cycles:   47526708 heartbeat IPC: 1.28032 cumulative IPC: 1.28349 (Simulation time: 0 hr 2 min 45 sec) 
Heartbeat CPU  0 instructions:   62000002 cycles:   48305921 heartbeat IPC: 1.28334 cumulative IPC: 1.28349 (Simulation time: 0 hr 2 min 48 sec) 
Heartbeat CPU  0 instructions:   63000002 cycles:   49085216 heartbeat IPC: 1.28321 cumulative IPC: 1.28348 (Simulation time: 0 hr 2 min 50 sec) 
Heartbeat CPU  0 instructions:   64000000 cycles:   49864374 heartbeat IPC: 1.28343 cumulative IPC: 1.28348 (Simulation time: 0 hr 2 min 53 sec) 
Heartbeat CPU  0 instructions:   65000002 cycles:   50643891 heartbeat IPC: 1.28285 cumulative IPC: 1.28347 (Simulation time: 0 hr 2 min 55 sec) 
Heartbeat CPU  0 instructions:   66000001 cycles:   51422763 heartbeat IPC: 1.28391 cumulative IPC: 1.28348 (Simulation time: 0 hr 2 min 58 sec) 
Heartbeat CPU  0 instructions:   67000003 cycles:   52201712 heartbeat IPC: 1.28378 cumulative IPC: 1.28348 (Simulation time: 0 hr 3 min 1 sec) 
Heartbeat CPU  0 instructions:   68000000 cycles:   52981642 heartbeat IPC: 1.28216 cumulative IPC: 1.28346 (Simulation time: 0 hr 3 min 3 sec) 
Heartbeat CPU  0 instructions:   69000002 cycles:   53761006 heartbeat IPC: 1.28310 cumulative IPC: 1.28346 (Simulation time: 0 hr 3 min 6 sec) 
Heartbeat CPU  0 instructions:   70000001 cycles:   54540681 heartbeat IPC: 1.28258 cumulative IPC: 1.28345 (Simulation time: 0 hr 3 min 9 sec) 
Heartbeat CPU  0 instructions:   71000003 cycles:   55320673 heartbeat IPC: 1.28207 cumulative IPC: 1.28343 (Simulation time: 0 hr 3 min 13 sec) 
Heartbeat CPU  0 instructions:   72000000 cycles:   56100894 heartbeat IPC: 1.28168 cumulative IPC: 1.28340 (Simulation time: 0 hr 3 min 16 sec) 
Heartbeat CPU  0 instructions:   73000000 cycles:   56882071 heartbeat IPC: 1.28012 cumulative IPC: 1.28336 (Simulation time: 0 hr 3 min 19 sec) 
Heartbeat CPU  0 instructions:   74000002 cycles:   57662650 heartbeat IPC: 1.28110 cumulative IPC: 1.28333 (Simulation time: 0 hr 3 min 22 sec) 
Heartbeat CPU  0 instructions:   75000000 cycles:   58443824 heartbeat IPC: 1.28012 cumulative IPC: 1.28328 (Simulation time: 0 hr 3 min 25 sec) 
Heartbeat CPU  0 instructions:   76000000 cycles:   59224495 heartbeat IPC: 1.28095 cumulative IPC: 1.28325 (Simulation time: 0 hr 3 min 28 sec) 
Heartbeat CPU  0 instructions:   77000003 cycles:   60004409 heartbeat IPC: 1.28220 cumulative IPC: 1.28324 (Simulation time: 0 hr 3 min 30 sec) 
Heartbeat CPU  0 instructions:   78000001 cycles:   60784609 heartbeat IPC: 1.28172 cumulative IPC: 1.28322 (Simulation time: 0 hr 3 min 33 sec) 
Heartbeat CPU  0 instructions:   79000001 cycles:   61565878 heartbeat IPC: 1.27997 cumulative IPC: 1.28318 (Simulation time: 0 hr 3 min 36 sec) 
Heartbeat CPU  0 instructions:   80000000 cycles:   62346057 heartbeat IPC: 1.28176 cumulative IPC: 1.28316 (Simulation time: 0 hr 3 min 38 sec) 
Heartbeat CPU  0 instructions:   81000001 cycles:   63124879 heartbeat IPC: 1.28399 cumulative IPC: 1.28317 (Simulation time: 0 hr 3 min 41 sec) 
Heartbeat CPU  0 instructions:   82000002 cycles:   63903430 heartbeat IPC: 1.28444 cumulative IPC: 1.28319 (Simulation time: 0 hr 3 min 44 sec) 
Heartbeat CPU  0 instructions:   83000000 cycles:   64684604 heartbeat IPC: 1.28012 cumulative IPC: 1.28315 (Simulation time: 0 hr 3 min 46 sec) 
Heartbeat CPU  0 instructions:   84000000 cycles:   65463675 heartbeat IPC: 1.28358 cumulative IPC: 1.28315 (Simulation time: 0 hr 3 min 49 sec) 
Heartbeat CPU  0 instructions:   85000002 cycles:   66242570 heartbeat IPC: 1.28387 cumulative IPC: 1.28316 (Simulation time: 0 hr 3 min 51 sec) 
Heartbeat CPU  0 instructions:   86000001 cycles:   67021594 heartbeat IPC: 1.28366 cumulative IPC: 1.28317 (Simulation time: 0 hr 3 min 54 sec) 
Heartbeat CPU  0 instructions:   87000001 cycles:   67800841 heartbeat IPC: 1.28329 cumulative IPC: 1.28317 (Simulation time: 0 hr 3 min 57 sec) 
Heartbeat CPU  0 instructions:   88000000 cycles:   68580019 heartbeat IPC: 1.28340 cumulative IPC: 1.28317 (Simulation time: 0 hr 4 min 0 sec) 
Heartbeat CPU  0 instructions:   89000001 cycles:   69360172 heartbeat IPC: 1.28180 cumulative IPC: 1.28316 (Simulation time: 0 hr 4 min 2 sec) 
Heartbeat CPU  0 instructions:   90000003 cycles:   70140388 heartbeat IPC: 1.28170 cumulative IPC: 1.28314 (Simulation time: 0 hr 4 min 5 sec) 
Heartbeat CPU  0 instructions:   91000001 cycles:   70920663 heartbeat IPC: 1.28160 cumulative IPC: 1.28312 (Simulation time: 0 hr 4 min 7 sec) 
Heartbeat CPU  0 instructions:   92000000 cycles:   71701282 heartbeat IPC: 1.28103 cumulative IPC: 1.28310 (Simulation time: 0 hr 4 min 10 sec) 
Heartbeat CPU  0 instructions:   93000002 cycles:   72481742 heartbeat IPC: 1.28130 cumulative IPC: 1.28308 (Simulation time: 0 hr 4 min 13 sec) 
Heartbeat CPU  0 instructions:   94000000 cycles:   73262129 heartbeat IPC: 1.28141 cumulative IPC: 1.28306 (Simulation time: 0 hr 4 min 15 sec) 
Heartbeat CPU  0 instructions:   95000001 cycles:   74042215 heartbeat IPC: 1.28191 cumulative IPC: 1.28305 (Simulation time: 0 hr 4 min 18 sec) 
Heartbeat CPU  0 instructions:   96000000 cycles:   74822633 heartbeat IPC: 1.28136 cumulative IPC: 1.28303 (Simulation time: 0 hr 4 min 21 sec) 
Heartbeat CPU  0 instructions:   97000002 cycles:   75603938 heartbeat IPC: 1.27991 cumulative IPC: 1.28300 (Simulation time: 0 hr 4 min 23 sec) 
Heartbeat CPU  0 instructions:   98000001 cycles:   76383250 heartbeat IPC: 1.28318 cumulative IPC: 1.28300 (Simulation time: 0 hr 4 min 26 sec) 
Heartbeat CPU  0 instructions:   99000003 cycles:   77162321 heartbeat IPC: 1.28358 cumulative IPC: 1.28301 (Simulation time: 0 hr 4 min 29 sec) 
Heartbeat CPU  0 instructions:  100000000 cycles:   77941155 heartbeat IPC: 1.28397 cumulative IPC: 1.28302 (Simulation time: 0 hr 4 min 31 sec) 

Warmup complete CPU  0 instructions:  100000001 cycles:   77941156 (Simulation time: 0 hr 4 min 31 sec) 

Heartbeat CPU  0 instructions:  101000003 cycles:   79367289 heartbeat IPC: 0.70120 cumulative IPC: 0.70120 (Simulation time: 0 hr 4 min 35 sec) 
Heartbeat CPU  0 instructions:  102000000 cycles:   80787216 heartbeat IPC: 0.70426 cumulative IPC: 0.70273 (Simulation time: 0 hr 4 min 38 sec) 
Heartbeat CPU  0 instructions:  103000002 cycles:   82205892 heartbeat IPC: 0.70488 cumulative IPC: 0.70344 (Simulation time: 0 hr 4 min 41 sec) 
Heartbeat CPU  0 instructions:  104000000 cycles:   83584046 heartbeat IPC: 0.72561 cumulative IPC: 0.70886 (Simulation time: 0 hr 4 min 44 sec) 
Heartbeat CPU  0 instructions:  105000003 cycles:   85010982 heartbeat IPC: 0.70080 cumulative IPC: 0.70723 (Simulation time: 0 hr 4 min 48 sec) 
Heartbeat CPU  0 instructions:  106000002 cycles:   86392684 heartbeat IPC: 0.72374 cumulative IPC: 0.70993 (Simulation time: 0 hr 4 min 51 sec) 
Heartbeat CPU  0 instructions:  107000000 cycles:   87782308 heartbeat IPC: 0.71962 cumulative IPC: 0.71130 (Simulation time: 0 hr 4 min 54 sec) 
Heartbeat CPU  0 instructions:  108000000 cycles:   89191718 heartbeat IPC: 0.70952 cumulative IPC: 0.71108 (Simulation time: 0 hr 4 min 57 sec) 
Heartbeat CPU  0 instructions:  109000003 cycles:   90598802 heartbeat IPC: 0.71069 cumulative IPC: 0.71103 (Simulation time: 0 hr 5 min 1 sec) 
Heartbeat CPU  0 instructions:  110000001 cycles:   91992644 heartbeat IPC: 0.71744 cumulative IPC: 0.71167 (Simulation time: 0 hr 5 min 4 sec) 
Heartbeat CPU  0 instructions:  111000000 cycles:   93385011 heartbeat IPC: 0.71820 cumulative IPC: 0.71226 (Simulation time: 0 hr 5 min 7 sec) 
Heartbeat CPU  0 instructions:  112000000 cycles:   94787526 heartbeat IPC: 0.71300 cumulative IPC: 0.71232 (Simulation time: 0 hr 5 min 10 sec) 
Heartbeat CPU  0 instructions:  113000000 cycles:   96179099 heartbeat IPC: 0.71861 cumulative IPC: 0.71280 (Simulation time: 0 hr 5 min 14 sec) 
Heartbeat CPU  0 instructions:  114000002 cycles:   97563601 heartbeat IPC: 0.72228 cumulative IPC: 0.71347 (Simulation time: 0 hr 5 min 17 sec) 
Heartbeat CPU  0 instructions:  115000000 cycles:   98973836 heartbeat IPC: 0.70910 cumulative IPC: 0.71318 (Simulation time: 0 hr 5 min 20 sec) 
Heartbeat CPU  0 instructions:  116000000 cycles:  100377600 heartbeat IPC: 0.71237 cumulative IPC: 0.71313 (Simulation time: 0 hr 5 min 23 sec) 
Heartbeat CPU  0 instructions:  117000000 cycles:  101764614 heartbeat IPC: 0.72097 cumulative IPC: 0.71358 (Simulation time: 0 hr 5 min 27 sec) 
Heartbeat CPU  0 instructions:  118000003 cycles:  103143385 heartbeat IPC: 0.72529 cumulative IPC: 0.71422 (Simulation time: 0 hr 5 min 30 sec) 
Heartbeat CPU  0 instructions:  119000001 cycles:  104544336 heartbeat IPC: 0.71380 cumulative IPC: 0.71420 (Simulation time: 0 hr 5 min 33 sec) 
Heartbeat CPU  0 instructions:  120000000 cycles:  105937609 heartbeat IPC: 0.71773 cumulative IPC: 0.71438 (Simulation time: 0 hr 5 min 36 sec) 
Heartbeat CPU  0 instructions:  121000000 cycles:  107329630 heartbeat IPC: 0.71838 cumulative IPC: 0.71457 (Simulation time: 0 hr 5 min 40 sec) 
Heartbeat CPU  0 instructions:  122000002 cycles:  108724866 heartbeat IPC: 0.71673 cumulative IPC: 0.71466 (Simulation time: 0 hr 5 min 43 sec) 
Heartbeat CPU  0 instructions:  123000000 cycles:  110140371 heartbeat IPC: 0.70646 cumulative IPC: 0.71430 (Simulation time: 0 hr 5 min 46 sec) 
Heartbeat CPU  0 instructions:  124000000 cycles:  111549513 heartbeat IPC: 0.70965 cumulative IPC: 0.71411 (Simulation time: 0 hr 5 min 49 sec) 
Heartbeat CPU  0 instructions:  125000002 cycles:  112944628 heartbeat IPC: 0.71679 cumulative IPC: 0.71421 (Simulation time: 0 hr 5 min 53 sec) 
Heartbeat CPU  0 instructions:  126000000 cycles:  114361761 heartbeat IPC: 0.70565 cumulative IPC: 0.71388 (Simulation time: 0 hr 5 min 56 sec) 
Heartbeat CPU  0 instructions:  127000002 cycles:  115779508 heartbeat IPC: 0.70535 cumulative IPC: 0.71356 (Simulation time: 0 hr 5 min 59 sec) 
Heartbeat CPU  0 instructions:  128000000 cycles:  117169727 heartbeat IPC: 0.71931 cumulative IPC: 0.71377 (Simulation time: 0 hr 6 min 2 sec) 
Heartbeat CPU  0 instructions:  129000001 cycles:  118556155 heartbeat IPC: 0.72128 cumulative IPC: 0.71402 (Simulation time: 0 hr 6 min 6 sec) 
Heartbeat CPU  0 instructions:  130000003 cycles:  119969265 heartbeat IPC: 0.70766 cumulative IPC: 0.71381 (Simulation time: 0 hr 6 min 9 sec) 
Heartbeat CPU  0 instructions:  131000003 cycles:  121398912 heartbeat IPC: 0.69947 cumulative IPC: 0.71334 (Simulation time: 0 hr 6 min 12 sec) 
Heartbeat CPU  0 instructions:  132000000 cycles:  122810611 heartbeat IPC: 0.70836 cumulative IPC: 0.71318 (Simulation time: 0 hr 6 min 15 sec) 
Heartbeat CPU  0 instructions:  133000000 cycles:  124235245 heartbeat IPC: 0.70193 cumulative IPC: 0.71283 (Simulation time: 0 hr 6 min 19 sec) 
Heartbeat CPU  0 instructions:  134000002 cycles:  126538066 heartbeat IPC: 0.43425 cumulative IPC: 0.69963 (Simulation time: 0 hr 6 min 22 sec) 
Heartbeat CPU  0 instructions:  135000002 cycles:  128739450 heartbeat IPC: 0.45426 cumulative IPC: 0.68900 (Simulation time: 0 hr 6 min 26 sec) 
Heartbeat CPU  0 instructions:  136000000 cycles:  130843422 heartbeat IPC: 0.47529 cumulative IPC: 0.68050 (Simulation time: 0 hr 6 min 29 sec) 
Heartbeat CPU  0 instructions:  137000002 cycles:  132355164 heartbeat IPC: 0.66149 cumulative IPC: 0.67997 (Simulation time: 0 hr 6 min 32 sec) 
Heartbeat CPU  0 instructions:  138000003 cycles:  133763643 heartbeat IPC: 0.70999 cumulative IPC: 0.68073 (Simulation time: 0 hr 6 min 36 sec) 
Heartbeat CPU  0 instructions:  139000001 cycles:  135118519 heartbeat IPC: 0.73807 cumulative IPC: 0.68209 (Simulation time: 0 hr 6 min 39 sec) 
Heartbeat CPU  0 instructions:  140000000 cycles:  136335236 heartbeat IPC: 0.82188 cumulative IPC: 0.68500 (Simulation time: 0 hr 6 min 42 sec) 
Heartbeat CPU  0 instructions:  141000003 cycles:  137600879 heartbeat IPC: 0.79011 cumulative IPC: 0.68723 (Simulation time: 0 hr 6 min 45 sec) 
Heartbeat CPU  0 instructions:  142000003 cycles:  138894487 heartbeat IPC: 0.77303 cumulative IPC: 0.68905 (Simulation time: 0 hr 6 min 48 sec) 
Heartbeat CPU  0 instructions:  143000000 cycles:  140266172 heartbeat IPC: 0.72903 cumulative IPC: 0.68993 (Simulation time: 0 hr 6 min 51 sec) 
Heartbeat CPU  0 instructions:  144000000 cycles:  141663576 heartbeat IPC: 0.71561 cumulative IPC: 0.69049 (Simulation time: 0 hr 6 min 54 sec) 
Heartbeat CPU  0 instructions:  145000002 cycles:  143030029 heartbeat IPC: 0.73182 cumulative IPC: 0.69136 (Simulation time: 0 hr 6 min 57 sec) 
Heartbeat CPU  0 instructions:  146000000 cycles:  144394147 heartbeat IPC: 0.73307 cumulative IPC: 0.69222 (Simulation time: 0 hr 7 min 0 sec) 
Heartbeat CPU  0 instructions:  147000002 cycles:  145757788 heartbeat IPC: 0.73333 cumulative IPC: 0.69305 (Simulation time: 0 hr 7 min 4 sec) 
Heartbeat CPU  0 instructions:  148000000 cycles:  147114980 heartbeat IPC: 0.73681 cumulative IPC: 0.69390 (Simulation time: 0 hr 7 min 7 sec) 
Heartbeat CPU  0 instructions:  149000001 cycles:  148474862 heartbeat IPC: 0.73536 cumulative IPC: 0.69470 (Simulation time: 0 hr 7 min 10 sec) 
Heartbeat CPU  0 instructions:  150000003 cycles:  149858119 heartbeat IPC: 0.72293 cumulative IPC: 0.69525 (Simulation time: 0 hr 7 min 13 sec) 
Heartbeat CPU  0 instructions:  151000001 cycles:  151254103 heartbeat IPC: 0.71634 cumulative IPC: 0.69565 (Simulation time: 0 hr 7 min 16 sec) 
Heartbeat CPU  0 instructions:  152000000 cycles:  152643485 heartbeat IPC: 0.71974 cumulative IPC: 0.69610 (Simulation time: 0 hr 7 min 20 sec) 
Heartbeat CPU  0 instructions:  153000002 cycles:  153996834 heartbeat IPC: 0.73891 cumulative IPC: 0.69686 (Simulation time: 0 hr 7 min 23 sec) 
Heartbeat CPU  0 instructions:  154000000 cycles:  155363902 heartbeat IPC: 0.73149 cumulative IPC: 0.69747 (Simulation time: 0 hr 7 min 26 sec) 
Heartbeat CPU  0 instructions:  155000000 cycles:  156745479 heartbeat IPC: 0.72381 cumulative IPC: 0.69793 (Simulation time: 0 hr 7 min 29 sec) 
Heartbeat CPU  0 instructions:  156000000 cycles:  158121038 heartbeat IPC: 0.72698 cumulative IPC: 0.69843 (Simulation time: 0 hr 7 min 33 sec) 
Heartbeat CPU  0 instructions:  157000001 cycles:  159491759 heartbeat IPC: 0.72954 cumulative IPC: 0.69895 (Simulation time: 0 hr 7 min 36 sec) 
Heartbeat CPU  0 instructions:  158000003 cycles:  160880156 heartbeat IPC: 0.72026 cumulative IPC: 0.69931 (Simulation time: 0 hr 7 min 39 sec) 
Heartbeat CPU  0 instructions:  159000002 cycles:  162285757 heartbeat IPC: 0.71144 cumulative IPC: 0.69951 (Simulation time: 0 hr 7 min 42 sec) 
Heartbeat CPU  0 instructions:  160000000 cycles:  163668334 heartbeat IPC: 0.72329 cumulative IPC: 0.69989 (Simulation time: 0 hr 7 min 45 sec) 
Heartbeat CPU  0 instructions:  161000003 cycles:  165064268 heartbeat IPC: 0.71637 cumulative IPC: 0.70016 (Simulation time: 0 hr 7 min 49 sec) 
Heartbeat CPU  0 instructions:  162000003 cycles:  166452485 heartbeat IPC: 0.72035 cumulative IPC: 0.70048 (Simulation time: 0 hr 7 min 52 sec) 
Heartbeat CPU  0 instructions:  163000001 cycles:  167836739 heartbeat IPC: 0.72241 cumulative IPC: 0.70081 (Simulation time: 0 hr 7 min 55 sec) 
Heartbeat CPU  0 instructions:  164000000 cycles:  169227155 heartbeat IPC: 0.71921 cumulative IPC: 0.70109 (Simulation time: 0 hr 7 min 59 sec) 
Heartbeat CPU  0 instructions:  165000002 cycles:  170614484 heartbeat IPC: 0.72081 cumulative IPC: 0.70139 (Simulation time: 0 hr 8 min 2 sec) 
Heartbeat CPU  0 instructions:  166000000 cycles:  172016329 heartbeat IPC: 0.71334 cumulative IPC: 0.70157 (Simulation time: 0 hr 8 min 5 sec) 
Heartbeat CPU  0 instructions:  167000002 cycles:  173395856 heartbeat IPC: 0.72489 cumulative IPC: 0.70190 (Simulation time: 0 hr 8 min 8 sec) 
Heartbeat CPU  0 instructions:  168000000 cycles:  174779981 heartbeat IPC: 0.72248 cumulative IPC: 0.70220 (Simulation time: 0 hr 8 min 12 sec) 
Heartbeat CPU  0 instructions:  169000001 cycles:  176154022 heartbeat IPC: 0.72778 cumulative IPC: 0.70256 (Simulation time: 0 hr 8 min 15 sec) 
Heartbeat CPU  0 instructions:  170000003 cycles:  177572503 heartbeat IPC: 0.70498 cumulative IPC: 0.70259 (Simulation time: 0 hr 8 min 18 sec) 
Heartbeat CPU  0 instructions:  171000002 cycles:  178939808 heartbeat IPC: 0.73136 cumulative IPC: 0.70298 (Simulation time: 0 hr 8 min 21 sec) 
Heartbeat CPU  0 instructions:  172000000 cycles:  180334535 heartbeat IPC: 0.71698 cumulative IPC: 0.70317 (Simulation time: 0 hr 8 min 25 sec) 
Heartbeat CPU  0 instructions:  173000002 cycles:  181705721 heartbeat IPC: 0.72930 cumulative IPC: 0.70352 (Simulation time: 0 hr 8 min 28 sec) 
Heartbeat CPU  0 instructions:  174000000 cycles:  183089848 heartbeat IPC: 0.72248 cumulative IPC: 0.70377 (Simulation time: 0 hr 8 min 31 sec) 
Heartbeat CPU  0 instructions:  175000001 cycles:  184452071 heartbeat IPC: 0.73409 cumulative IPC: 0.70415 (Simulation time: 0 hr 8 min 34 sec) 
Heartbeat CPU  0 instructions:  176000000 cycles:  185807164 heartbeat IPC: 0.73796 cumulative IPC: 0.70458 (Simulation time: 0 hr 8 min 38 sec) 
Heartbeat CPU  0 instructions:  177000001 cycles:  187202547 heartbeat IPC: 0.71665 cumulative IPC: 0.70473 (Simulation time: 0 hr 8 min 41 sec) 
Heartbeat CPU  0 instructions:  178000000 cycles:  188574505 heartbeat IPC: 0.72888 cumulative IPC: 0.70503 (Simulation time: 0 hr 8 min 44 sec) 
Heartbeat CPU  0 instructions:  179000002 cycles:  189984643 heartbeat IPC: 0.70915 cumulative IPC: 0.70508 (Simulation time: 0 hr 8 min 47 sec) 
Heartbeat CPU  0 instructions:  180000000 cycles:  191364426 heartbeat IPC: 0.72475 cumulative IPC: 0.70532 (Simulation time: 0 hr 8 min 51 sec) 
Heartbeat CPU  0 instructions:  181000002 cycles:  192739399 heartbeat IPC: 0.72729 cumulative IPC: 0.70559 (Simulation time: 0 hr 8 min 54 sec) 
Heartbeat CPU  0 instructions:  182000003 cycles:  194111566 heartbeat IPC: 0.72878 cumulative IPC: 0.70586 (Simulation time: 0 hr 8 min 57 sec) 
Heartbeat CPU  0 instructions:  183000001 cycles:  195483809 heartbeat IPC: 0.72873 cumulative IPC: 0.70613 (Simulation time: 0 hr 9 min 0 sec) 
Heartbeat CPU  0 instructions:  184000000 cycles:  196873670 heartbeat IPC: 0.71950 cumulative IPC: 0.70628 (Simulation time: 0 hr 9 min 4 sec) 
Heartbeat CPU  0 instructions:  185000003 cycles:  198276983 heartbeat IPC: 0.71260 cumulative IPC: 0.70636 (Simulation time: 0 hr 9 min 7 sec) 
Heartbeat CPU  0 instructions:  186000000 cycles:  199647722 heartbeat IPC: 0.72953 cumulative IPC: 0.70662 (Simulation time: 0 hr 9 min 10 sec) 
Heartbeat CPU  0 instructions:  187000000 cycles:  201026180 heartbeat IPC: 0.72545 cumulative IPC: 0.70683 (Simulation time: 0 hr 9 min 13 sec) 
Heartbeat CPU  0 instructions:  188000000 cycles:  202460916 heartbeat IPC: 0.69699 cumulative IPC: 0.70672 (Simulation time: 0 hr 9 min 17 sec) 
Heartbeat CPU  0 instructions:  189000001 cycles:  203883588 heartbeat IPC: 0.70290 cumulative IPC: 0.70667 (Simulation time: 0 hr 9 min 20 sec) 
Heartbeat CPU  0 instructions:  190000003 cycles:  205260639 heartbeat IPC: 0.72619 cumulative IPC: 0.70688 (Simulation time: 0 hr 9 min 23 sec) 
Heartbeat CPU  0 instructions:  191000002 cycles:  206641711 heartbeat IPC: 0.72407 cumulative IPC: 0.70707 (Simulation time: 0 hr 9 min 26 sec) 
Heartbeat CPU  0 instructions:  192000000 cycles:  208066775 heartbeat IPC: 0.70172 cumulative IPC: 0.70701 (Simulation time: 0 hr 9 min 30 sec) 
Heartbeat CPU  0 instructions:  193000002 cycles:  209466624 heartbeat IPC: 0.71436 cumulative IPC: 0.70709 (Simulation time: 0 hr 9 min 33 sec) 
Heartbeat CPU  0 instructions:  194000003 cycles:  210870765 heartbeat IPC: 0.71218 cumulative IPC: 0.70714 (Simulation time: 0 hr 9 min 36 sec) 
Heartbeat CPU  0 instructions:  195000001 cycles:  212234635 heartbeat IPC: 0.73321 cumulative IPC: 0.70741 (Simulation time: 0 hr 9 min 39 sec) 
Heartbeat CPU  0 instructions:  196000000 cycles:  213621957 heartbeat IPC: 0.72081 cumulative IPC: 0.70754 (Simulation time: 0 hr 9 min 43 sec) 
Heartbeat CPU  0 instructions:  197000001 cycles:  215024162 heartbeat IPC: 0.71316 cumulative IPC: 0.70760 (Simulation time: 0 hr 9 min 46 sec) 
Heartbeat CPU  0 instructions:  198000000 cycles:  216403773 heartbeat IPC: 0.72484 cumulative IPC: 0.70777 (Simulation time: 0 hr 9 min 49 sec) 
Heartbeat CPU  0 instructions:  199000002 cycles:  217788663 heartbeat IPC: 0.72208 cumulative IPC: 0.70791 (Simulation time: 0 hr 9 min 53 sec) 
Heartbeat CPU  0 instructions:  200000000 cycles:  219163145 heartbeat IPC: 0.72755 cumulative IPC: 0.70811 (Simulation time: 0 hr 9 min 56 sec) 
Heartbeat CPU  0 instructions:  201000001 cycles:  220558149 heartbeat IPC: 0.71684 cumulative IPC: 0.70819 (Simulation time: 0 hr 9 min 59 sec) 
Heartbeat CPU  0 instructions:  202000003 cycles:  221959807 heartbeat IPC: 0.71344 cumulative IPC: 0.70824 (Simulation time: 0 hr 10 min 2 sec) 
Heartbeat CPU  0 instructions:  203000001 cycles:  223334256 heartbeat IPC: 0.72756 cumulative IPC: 0.70842 (Simulation time: 0 hr 10 min 6 sec) 
Heartbeat CPU  0 instructions:  204000000 cycles:  224703150 heartbeat IPC: 0.73052 cumulative IPC: 0.70863 (Simulation time: 0 hr 10 min 9 sec) 
Heartbeat CPU  0 instructions:  205000001 cycles:  226058199 heartbeat IPC: 0.73798 cumulative IPC: 0.70890 (Simulation time: 0 hr 10 min 12 sec) 
Heartbeat CPU  0 instructions:  206000000 cycles:  227437574 heartbeat IPC: 0.72497 cumulative IPC: 0.70905 (Simulation time: 0 hr 10 min 15 sec) 
Heartbeat CPU  0 instructions:  207000001 cycles:  228834241 heartbeat IPC: 0.71599 cumulative IPC: 0.70911 (Simulation time: 0 hr 10 min 19 sec) 
Heartbeat CPU  0 instructions:  208000000 cycles:  230202684 heartbeat IPC: 0.73076 cumulative IPC: 0.70931 (Simulation time: 0 hr 10 min 22 sec) 
Heartbeat CPU  0 instructions:  209000001 cycles:  231592146 heartbeat IPC: 0.71970 cumulative IPC: 0.70940 (Simulation time: 0 hr 10 min 25 sec) 
Heartbeat CPU  0 instructions:  210000000 cycles:  232979516 heartbeat IPC: 0.72079 cumulative IPC: 0.70950 (Simulation time: 0 hr 10 min 29 sec) 
Heartbeat CPU  0 instructions:  211000002 cycles:  234372116 heartbeat IPC: 0.71808 cumulative IPC: 0.70958 (Simulation time: 0 hr 10 min 32 sec) 
Heartbeat CPU  0 instructions:  212000000 cycles:  235743581 heartbeat IPC: 0.72915 cumulative IPC: 0.70975 (Simulation time: 0 hr 10 min 35 sec) 
Heartbeat CPU  0 instructions:  213000000 cycles:  237121029 heartbeat IPC: 0.72598 cumulative IPC: 0.70989 (Simulation time: 0 hr 10 min 38 sec) 
Heartbeat CPU  0 instructions:  214000003 cycles:  238535594 heartbeat IPC: 0.70693 cumulative IPC: 0.70986 (Simulation time: 0 hr 10 min 42 sec) 
Heartbeat CPU  0 instructions:  215000001 cycles:  239911983 heartbeat IPC: 0.72654 cumulative IPC: 0.71000 (Simulation time: 0 hr 10 min 45 sec) 
Heartbeat CPU  0 instructions:  216000000 cycles:  241299237 heartbeat IPC: 0.72085 cumulative IPC: 0.71010 (Simulation time: 0 hr 10 min 48 sec) 
Heartbeat CPU  0 instructions:  217000003 cycles:  242681989 heartbeat IPC: 0.72320 cumulative IPC: 0.71021 (Simulation time: 0 hr 10 min 51 sec) 
Heartbeat CPU  0 instructions:  218000000 cycles:  244095781 heartbeat IPC: 0.70732 cumulative IPC: 0.71018 (Simulation time: 0 hr 10 min 55 sec) 
Heartbeat CPU  0 instructions:  219000002 cycles:  245465658 heartbeat IPC: 0.72999 cumulative IPC: 0.71034 (Simulation time: 0 hr 10 min 58 sec) 
Heartbeat CPU  0 instructions:  220000000 cycles:  246858766 heartbeat IPC: 0.71782 cumulative IPC: 0.71041 (Simulation time: 0 hr 11 min 1 sec) 
Heartbeat CPU  0 instructions:  221000001 cycles:  248284051 heartbeat IPC: 0.70161 cumulative IPC: 0.71033 (Simulation time: 0 hr 11 min 5 sec) 
Heartbeat CPU  0 instructions:  222000003 cycles:  249669555 heartbeat IPC: 0.72176 cumulative IPC: 0.71042 (Simulation time: 0 hr 11 min 8 sec) 
Heartbeat CPU  0 instructions:  223000001 cycles:  251040234 heartbeat IPC: 0.72956 cumulative IPC: 0.71058 (Simulation time: 0 hr 11 min 11 sec) 
Heartbeat CPU  0 instructions:  224000000 cycles:  252423252 heartbeat IPC: 0.72306 cumulative IPC: 0.71067 (Simulation time: 0 hr 11 min 14 sec) 
Heartbeat CPU  0 instructions:  225000002 cycles:  253827704 heartbeat IPC: 0.71202 cumulative IPC: 0.71069 (Simulation time: 0 hr 11 min 18 sec) 
Heartbeat CPU  0 instructions:  226000000 cycles:  255232101 heartbeat IPC: 0.71205 cumulative IPC: 0.71070 (Simulation time: 0 hr 11 min 21 sec) 
Heartbeat CPU  0 instructions:  227000001 cycles:  256642293 heartbeat IPC: 0.70912 cumulative IPC: 0.71068 (Simulation time: 0 hr 11 min 24 sec) 
Heartbeat CPU  0 instructions:  228000000 cycles:  258027424 heartbeat IPC: 0.72195 cumulative IPC: 0.71077 (Simulation time: 0 hr 11 min 28 sec) 
Heartbeat CPU  0 instructions:  229000001 cycles:  259453522 heartbeat IPC: 0.70121 cumulative IPC: 0.71070 (Simulation time: 0 hr 11 min 31 sec) 
Heartbeat CPU  0 instructions:  230000002 cycles:  260822749 heartbeat IPC: 0.73034 cumulative IPC: 0.71084 (Simulation time: 0 hr 11 min 34 sec) 
Heartbeat CPU  0 instructions:  231000003 cycles:  262184458 heartbeat IPC: 0.73437 cumulative IPC: 0.71102 (Simulation time: 0 hr 11 min 37 sec) 
Heartbeat CPU  0 instructions:  232000000 cycles:  263567780 heartbeat IPC: 0.72290 cumulative IPC: 0.71110 (Simulation time: 0 hr 11 min 41 sec) 
Heartbeat CPU  0 instructions:  233000001 cycles:  264975288 heartbeat IPC: 0.71048 cumulative IPC: 0.71110 (Simulation time: 0 hr 11 min 44 sec) 
Heartbeat CPU  0 instructions:  234000003 cycles:  266381832 heartbeat IPC: 0.71096 cumulative IPC: 0.71110 (Simulation time: 0 hr 11 min 47 sec) 
Heartbeat CPU  0 instructions:  235000001 cycles:  267752739 heartbeat IPC: 0.72944 cumulative IPC: 0.71123 (Simulation time: 0 hr 11 min 50 sec) 
Heartbeat CPU  0 instructions:  236000000 cycles:  269143480 heartbeat IPC: 0.71904 cumulative IPC: 0.71129 (Simulation time: 0 hr 11 min 54 sec) 
Heartbeat CPU  0 instructions:  237000001 cycles:  270515514 heartbeat IPC: 0.72885 cumulative IPC: 0.71141 (Simulation time: 0 hr 11 min 57 sec) 
Heartbeat CPU  0 instructions:  238000002 cycles:  271887863 heartbeat IPC: 0.72868 cumulative IPC: 0.71154 (Simulation time: 0 hr 12 min 0 sec) 
Heartbeat CPU  0 instructions:  239000002 cycles:  273265513 heartbeat IPC: 0.72587 cumulative IPC: 0.71164 (Simulation time: 0 hr 12 min 4 sec) 
Heartbeat CPU  0 instructions:  240000000 cycles:  274671218 heartbeat IPC: 0.71139 cumulative IPC: 0.71163 (Simulation time: 0 hr 12 min 7 sec) 
Heartbeat CPU  0 instructions:  241000001 cycles:  276059032 heartbeat IPC: 0.72056 cumulative IPC: 0.71170 (Simulation time: 0 hr 12 min 10 sec) 
Heartbeat CPU  0 instructions:  242000000 cycles:  277446582 heartbeat IPC: 0.72069 cumulative IPC: 0.71176 (Simulation time: 0 hr 12 min 13 sec) 
Heartbeat CPU  0 instructions:  243000002 cycles:  278830913 heartbeat IPC: 0.72237 cumulative IPC: 0.71183 (Simulation time: 0 hr 12 min 17 sec) 
Heartbeat CPU  0 instructions:  244000000 cycles:  280245821 heartbeat IPC: 0.70676 cumulative IPC: 0.71180 (Simulation time: 0 hr 12 min 20 sec) 
Heartbeat CPU  0 instructions:  245000000 cycles:  281638047 heartbeat IPC: 0.71827 cumulative IPC: 0.71184 (Simulation time: 0 hr 12 min 23 sec) 
Heartbeat CPU  0 instructions:  246000003 cycles:  283036145 heartbeat IPC: 0.71526 cumulative IPC: 0.71187 (Simulation time: 0 hr 12 min 26 sec) 
Heartbeat CPU  0 instructions:  247000001 cycles:  284402549 heartbeat IPC: 0.73185 cumulative IPC: 0.71200 (Simulation time: 0 hr 12 min 30 sec) 
Heartbeat CPU  0 instructions:  248000000 cycles:  285770515 heartbeat IPC: 0.73101 cumulative IPC: 0.71212 (Simulation time: 0 hr 12 min 33 sec) 
Heartbeat CPU  0 instructions:  249000001 cycles:  287171417 heartbeat IPC: 0.71383 cumulative IPC: 0.71213 (Simulation time: 0 hr 12 min 36 sec) 
Heartbeat CPU  0 instructions:  250000001 cycles:  288564986 heartbeat IPC: 0.71758 cumulative IPC: 0.71217 (Simulation time: 0 hr 12 min 39 sec) 
Heartbeat CPU  0 instructions:  251000001 cycles:  292507439 heartbeat IPC: 0.25365 cumulative IPC: 0.70375 (Simulation time: 0 hr 12 min 43 sec) 
Heartbeat CPU  0 instructions:  252000000 cycles:  294224447 heartbeat IPC: 0.58241 cumulative IPC: 0.70278 (Simulation time: 0 hr 12 min 46 sec) 
Heartbeat CPU  0 instructions:  253000000 cycles:  295785058 heartbeat IPC: 0.64077 cumulative IPC: 0.70234 (Simulation time: 0 hr 12 min 48 sec) 
Heartbeat CPU  0 instructions:  254000003 cycles:  297237478 heartbeat IPC: 0.68851 cumulative IPC: 0.70225 (Simulation time: 0 hr 12 min 51 sec) 
Heartbeat CPU  0 instructions:  255000002 cycles:  298688923 heartbeat IPC: 0.68897 cumulative IPC: 0.70216 (Simulation time: 0 hr 12 min 53 sec) 
Heartbeat CPU  0 instructions:  256000000 cycles:  310556631 heartbeat IPC: 0.08426 cumulative IPC: 0.67063 (Simulation time: 0 hr 13 min 1 sec) 
Heartbeat CPU  0 instructions:  257000000 cycles:  312269367 heartbeat IPC: 0.58386 cumulative IPC: 0.67000 (Simulation time: 0 hr 13 min 3 sec) 
Heartbeat CPU  0 instructions:  258000001 cycles:  313819956 heartbeat IPC: 0.64492 cumulative IPC: 0.66984 (Simulation time: 0 hr 13 min 6 sec) 
Heartbeat CPU  0 instructions:  259000002 cycles:  315274567 heartbeat IPC: 0.68747 cumulative IPC: 0.66994 (Simulation time: 0 hr 13 min 8 sec) 
Heartbeat CPU  0 instructions:  260000000 cycles:  316727735 heartbeat IPC: 0.68815 cumulative IPC: 0.67005 (Simulation time: 0 hr 13 min 11 sec) 
Heartbeat CPU  0 instructions:  261000000 cycles:  328224353 heartbeat IPC: 0.08698 cumulative IPC: 0.64327 (Simulation time: 0 hr 13 min 18 sec) 
Heartbeat CPU  0 instructions:  262000003 cycles:  329939392 heartbeat IPC: 0.58308 cumulative IPC: 0.64286 (Simulation time: 0 hr 13 min 20 sec) 
Heartbeat CPU  0 instructions:  263000001 cycles:  331503490 heartbeat IPC: 0.63934 cumulative IPC: 0.64284 (Simulation time: 0 hr 13 min 23 sec) 
Heartbeat CPU  0 instructions:  264000000 cycles:  332958328 heartbeat IPC: 0.68736 cumulative IPC: 0.64309 (Simulation time: 0 hr 13 min 25 sec) 
Heartbeat CPU  0 instructions:  265000001 cycles:  334411946 heartbeat IPC: 0.68794 cumulative IPC: 0.64335 (Simulation time: 0 hr 13 min 28 sec) 
Heartbeat CPU  0 instructions:  266000001 cycles:  345938041 heartbeat IPC: 0.08676 cumulative IPC: 0.61941 (Simulation time: 0 hr 13 min 35 sec) 
Heartbeat CPU  0 instructions:  267000003 cycles:  347624152 heartbeat IPC: 0.59308 cumulative IPC: 0.61925 (Simulation time: 0 hr 13 min 38 sec) 
Heartbeat CPU  0 instructions:  268000000 cycles:  349188998 heartbeat IPC: 0.63904 cumulative IPC: 0.61936 (Simulation time: 0 hr 13 min 40 sec) 
Heartbeat CPU  0 instructions:  269000002 cycles:  350641786 heartbeat IPC: 0.68833 cumulative IPC: 0.61973 (Simulation time: 0 hr 13 min 42 sec) 
Heartbeat CPU  0 instructions:  270000003 cycles:  352092861 heartbeat IPC: 0.68914 cumulative IPC: 0.62009 (Simulation time: 0 hr 13 min 45 sec) 
Heartbeat CPU  0 instructions:  271000000 cycles:  364030245 heartbeat IPC: 0.08377 cumulative IPC: 0.59772 (Simulation time: 0 hr 13 min 52 sec) 
Heartbeat CPU  0 instructions:  272000000 cycles:  365721523 heartbeat IPC: 0.59127 cumulative IPC: 0.59768 (Simulation time: 0 hr 13 min 55 sec) 
Heartbeat CPU  0 instructions:  273000000 cycles:  367291788 heartbeat IPC: 0.63684 cumulative IPC: 0.59789 (Simulation time: 0 hr 13 min 57 sec) 
Heartbeat CPU  0 instructions:  274000001 cycles:  368744623 heartbeat IPC: 0.68831 cumulative IPC: 0.59834 (Simulation time: 0 hr 14 min 0 sec) 
Heartbeat CPU  0 instructions:  275000000 cycles:  370196244 heartbeat IPC: 0.68888 cumulative IPC: 0.59879 (Simulation time: 0 hr 14 min 2 sec) 
Heartbeat CPU  0 instructions:  276000000 cycles:  372738118 heartbeat IPC: 0.39341 cumulative IPC: 0.59702 (Simulation time: 0 hr 14 min 5 sec) 
Heartbeat CPU  0 instructions:  277000000 cycles:  374394749 heartbeat IPC: 0.60363 cumulative IPC: 0.59706 (Simulation time: 0 hr 14 min 7 sec) 
Heartbeat CPU  0 instructions:  278000000 cycles:  375962391 heartbeat IPC: 0.63790 cumulative IPC: 0.59727 (Simulation time: 0 hr 14 min 10 sec) 
Heartbeat CPU  0 instructions:  279000000 cycles:  377414887 heartbeat IPC: 0.68847 cumulative IPC: 0.59772 (Simulation time: 0 hr 14 min 12 sec) 
Heartbeat CPU  0 instructions:  280000000 cycles:  378866132 heartbeat IPC: 0.68906 cumulative IPC: 0.59816 (Simulation time: 0 hr 14 min 15 sec) 
Heartbeat CPU  0 instructions:  281000000 cycles:  381215234 heartbeat IPC: 0.42569 cumulative IPC: 0.59682 (Simulation time: 0 hr 14 min 17 sec) 
Heartbeat CPU  0 instructions:  282000000 cycles:  382877525 heartbeat IPC: 0.60158 cumulative IPC: 0.59685 (Simulation time: 0 hr 14 min 20 sec) 
Heartbeat CPU  0 instructions:  283000001 cycles:  384446984 heartbeat IPC: 0.63716 cumulative IPC: 0.59705 (Simulation time: 0 hr 14 min 22 sec) 
Heartbeat CPU  0 instructions:  284000000 cycles:  385898438 heartbeat IPC: 0.68896 cumulative IPC: 0.59749 (Simulation time: 0 hr 14 min 25 sec) 
Heartbeat CPU  0 instructions:  285000000 cycles:  387349880 heartbeat IPC: 0.68897 cumulative IPC: 0.59791 (Simulation time: 0 hr 14 min 27 sec) 
Heartbeat CPU  0 instructions:  286000002 cycles:  389410806 heartbeat IPC: 0.48522 cumulative IPC: 0.59717 (Simulation time: 0 hr 14 min 29 sec) 
Heartbeat CPU  0 instructions:  287000000 cycles:  391081066 heartbeat IPC: 0.59871 cumulative IPC: 0.59718 (Simulation time: 0 hr 14 min 32 sec) 
Heartbeat CPU  0 instructions:  288000000 cycles:  392642724 heartbeat IPC: 0.64035 cumulative IPC: 0.59739 (Simulation time: 0 hr 14 min 35 sec) 
Heartbeat CPU  0 instructions:  289000001 cycles:  394095801 heartbeat IPC: 0.68820 cumulative IPC: 0.59781 (Simulation time: 0 hr 14 min 37 sec) 
Heartbeat CPU  0 instructions:  290000001 cycles:  395548850 heartbeat IPC: 0.68821 cumulative IPC: 0.59822 (Simulation time: 0 hr 14 min 39 sec) 
Heartbeat CPU  0 instructions:  291000001 cycles:  397513319 heartbeat IPC: 0.50904 cumulative IPC: 0.59767 (Simulation time: 0 hr 14 min 42 sec) 
Heartbeat CPU  0 instructions:  292000000 cycles:  399144903 heartbeat IPC: 0.61290 cumulative IPC: 0.59775 (Simulation time: 0 hr 14 min 44 sec) 
Heartbeat CPU  0 instructions:  293000001 cycles:  400858199 heartbeat IPC: 0.58367 cumulative IPC: 0.59768 (Simulation time: 0 hr 14 min 47 sec) 
Heartbeat CPU  0 instructions:  294000003 cycles:  402571515 heartbeat IPC: 0.58366 cumulative IPC: 0.59760 (Simulation time: 0 hr 14 min 50 sec) 
Heartbeat CPU  0 instructions:  295000003 cycles:  404645120 heartbeat IPC: 0.48225 cumulative IPC: 0.59687 (Simulation time: 0 hr 14 min 52 sec) 
Heartbeat CPU  0 instructions:  296000000 cycles:  406236604 heartbeat IPC: 0.62834 cumulative IPC: 0.59702 (Simulation time: 0 hr 14 min 55 sec) 
Heartbeat CPU  0 instructions:  297000001 cycles:  407953050 heartbeat IPC: 0.58260 cumulative IPC: 0.59695 (Simulation time: 0 hr 14 min 57 sec) 
Heartbeat CPU  0 instructions:  298000002 cycles:  409669322 heartbeat IPC: 0.58266 cumulative IPC: 0.59687 (Simulation time: 0 hr 15 min 0 sec) 
Heartbeat CPU  0 instructions:  299000002 cycles:  411573656 heartbeat IPC: 0.52512 cumulative IPC: 0.59646 (Simulation time: 0 hr 15 min 3 sec) 
Heartbeat CPU  0 instructions:  300000000 cycles:  413145316 heartbeat IPC: 0.63627 cumulative IPC: 0.59665 (Simulation time: 0 hr 15 min 5 sec) 
Heartbeat CPU  0 instructions:  301000000 cycles:  414596817 heartbeat IPC: 0.68894 cumulative IPC: 0.59705 (Simulation time: 0 hr 15 min 7 sec) 
Heartbeat CPU  0 instructions:  302000001 cycles:  416048135 heartbeat IPC: 0.68903 cumulative IPC: 0.59744 (Simulation time: 0 hr 15 min 10 sec) 
Heartbeat CPU  0 instructions:  303000000 cycles:  417499514 heartbeat IPC: 0.68900 cumulative IPC: 0.59784 (Simulation time: 0 hr 15 min 12 sec) 
Heartbeat CPU  0 instructions:  304000000 cycles:  418950817 heartbeat IPC: 0.68904 cumulative IPC: 0.59822 (Simulation time: 0 hr 15 min 14 sec) 
Heartbeat CPU  0 instructions:  305000003 cycles:  420904632 heartbeat IPC: 0.51182 cumulative IPC: 0.59773 (Simulation time: 0 hr 15 min 17 sec) 
Heartbeat CPU  0 instructions:  306000001 cycles:  422251597 heartbeat IPC: 0.74241 cumulative IPC: 0.59830 (Simulation time: 0 hr 15 min 19 sec) 
Heartbeat CPU  0 instructions:  307000001 cycles:  423704684 heartbeat IPC: 0.68819 cumulative IPC: 0.59868 (Simulation time: 0 hr 15 min 22 sec) 
Heartbeat CPU  0 instructions:  308000000 cycles:  425157735 heartbeat IPC: 0.68821 cumulative IPC: 0.59905 (Simulation time: 0 hr 15 min 24 sec) 
Heartbeat CPU  0 instructions:  309000003 cycles:  426610816 heartbeat IPC: 0.68819 cumulative IPC: 0.59942 (Simulation time: 0 hr 15 min 26 sec) 
Heartbeat CPU  0 instructions:  310000002 cycles:  428459214 heartbeat IPC: 0.54101 cumulative IPC: 0.59911 (Simulation time: 0 hr 15 min 29 sec) 
Heartbeat CPU  0 instructions:  311000000 cycles:  433717636 heartbeat IPC: 0.19017 cumulative IPC: 0.59307 (Simulation time: 0 hr 15 min 34 sec) 
Heartbeat CPU  0 instructions:  312000000 cycles:  436812138 heartbeat IPC: 0.32315 cumulative IPC: 0.59074 (Simulation time: 0 hr 15 min 38 sec) 
Heartbeat CPU  0 instructions:  313000002 cycles:  439701144 heartbeat IPC: 0.34614 cumulative IPC: 0.58879 (Simulation time: 0 hr 15 min 42 sec) 
Heartbeat CPU  0 instructions:  314000002 cycles:  442610154 heartbeat IPC: 0.34376 cumulative IPC: 0.58683 (Simulation time: 0 hr 15 min 46 sec) 
Heartbeat CPU  0 instructions:  315000001 cycles:  445483767 heartbeat IPC: 0.34799 cumulative IPC: 0.58497 (Simulation time: 0 hr 15 min 50 sec) 
Heartbeat CPU  0 instructions:  316000000 cycles:  448376029 heartbeat IPC: 0.34575 cumulative IPC: 0.58310 (Simulation time: 0 hr 15 min 53 sec) 
Heartbeat CPU  0 instructions:  317000002 cycles:  451268058 heartbeat IPC: 0.34578 cumulative IPC: 0.58126 (Simulation time: 0 hr 15 min 57 sec) 
Heartbeat CPU  0 instructions:  318000001 cycles:  454146600 heartbeat IPC: 0.34740 cumulative IPC: 0.57947 (Simulation time: 0 hr 16 min 1 sec) 
Heartbeat CPU  0 instructions:  319000003 cycles:  457046159 heartbeat IPC: 0.34488 cumulative IPC: 0.57768 (Simulation time: 0 hr 16 min 5 sec) 
Heartbeat CPU  0 instructions:  320000000 cycles:  459935972 heartbeat IPC: 0.34604 cumulative IPC: 0.57592 (Simulation time: 0 hr 16 min 9 sec) 
Heartbeat CPU  0 instructions:  321000001 cycles:  462834568 heartbeat IPC: 0.34499 cumulative IPC: 0.57418 (Simulation time: 0 hr 16 min 13 sec) 
Heartbeat CPU  0 instructions:  322000000 cycles:  465676527 heartbeat IPC: 0.35187 cumulative IPC: 0.57256 (Simulation time: 0 hr 16 min 17 sec) 
Heartbeat CPU  0 instructions:  323000001 cycles:  469072732 heartbeat IPC: 0.29445 cumulative IPC: 0.57014 (Simulation time: 0 hr 16 min 21 sec) 
Heartbeat CPU  0 instructions:  324000000 cycles:  471919157 heartbeat IPC: 0.35132 cumulative IPC: 0.56856 (Simulation time: 0 hr 16 min 25 sec) 
Heartbeat CPU  0 instructions:  325000003 cycles:  474791177 heartbeat IPC: 0.34819 cumulative IPC: 0.56696 (Simulation time: 0 hr 16 min 29 sec) 
Heartbeat CPU  0 instructions:  326000000 cycles:  477666872 heartbeat IPC: 0.34774 cumulative IPC: 0.56539 (Simulation time: 0 hr 16 min 33 sec) 
Heartbeat CPU  0 instructions:  327000003 cycles:  480537318 heartbeat IPC: 0.34838 cumulative IPC: 0.56384 (Simulation time: 0 hr 16 min 37 sec) 
Heartbeat CPU  0 instructions:  328000000 cycles:  483429424 heartbeat IPC: 0.34577 cumulative IPC: 0.56229 (Simulation time: 0 hr 16 min 41 sec) 
Heartbeat CPU  0 instructions:  329000001 cycles:  486296290 heartbeat IPC: 0.34881 cumulative IPC: 0.56079 (Simulation time: 0 hr 16 min 45 sec) 
Heartbeat CPU  0 instructions:  330000000 cycles:  489173867 heartbeat IPC: 0.34751 cumulative IPC: 0.55929 (Simulation time: 0 hr 16 min 49 sec) 
Heartbeat CPU  0 instructions:  331000003 cycles:  492055446 heartbeat IPC: 0.34703 cumulative IPC: 0.55782 (Simulation time: 0 hr 16 min 53 sec) 
Heartbeat CPU  0 instructions:  332000000 cycles:  494928121 heartbeat IPC: 0.34811 cumulative IPC: 0.55637 (Simulation time: 0 hr 16 min 56 sec) 
Heartbeat CPU  0 instructions:  333000000 cycles:  497788866 heartbeat IPC: 0.34956 cumulative IPC: 0.55496 (Simulation time: 0 hr 17 min 0 sec) 
Heartbeat CPU  0 instructions:  334000002 cycles:  500634672 heartbeat IPC: 0.35140 cumulative IPC: 0.55359 (Simulation time: 0 hr 17 min 4 sec) 
Heartbeat CPU  0 instructions:  335000001 cycles:  503456959 heartbeat IPC: 0.35432 cumulative IPC: 0.55227 (Simulation time: 0 hr 17 min 8 sec) 
Heartbeat CPU  0 instructions:  336000000 cycles:  504986389 heartbeat IPC: 0.65384 cumulative IPC: 0.55263 (Simulation time: 0 hr 17 min 12 sec) 
Heartbeat CPU  0 instructions:  337000002 cycles:  506515862 heartbeat IPC: 0.65382 cumulative IPC: 0.55300 (Simulation time: 0 hr 17 min 15 sec) 
Heartbeat CPU  0 instructions:  338000000 cycles:  508062080 heartbeat IPC: 0.64674 cumulative IPC: 0.55333 (Simulation time: 0 hr 17 min 18 sec) 
Heartbeat CPU  0 instructions:  339000000 cycles:  509592302 heartbeat IPC: 0.65350 cumulative IPC: 0.55369 (Simulation time: 0 hr 17 min 22 sec) 
Heartbeat CPU  0 instructions:  340000000 cycles:  511105832 heartbeat IPC: 0.66071 cumulative IPC: 0.55406 (Simulation time: 0 hr 17 min 25 sec) 
Heartbeat CPU  0 instructions:  341000002 cycles:  512630346 heartbeat IPC: 0.65595 cumulative IPC: 0.55442 (Simulation time: 0 hr 17 min 29 sec) 
Heartbeat CPU  0 instructions:  342000002 cycles:  514152295 heartbeat IPC: 0.65705 cumulative IPC: 0.55478 (Simulation time: 0 hr 17 min 32 sec) 
Heartbeat CPU  0 instructions:  343000003 cycles:  515691557 heartbeat IPC: 0.64966 cumulative IPC: 0.55511 (Simulation time: 0 hr 17 min 35 sec) 
Heartbeat CPU  0 instructions:  344000000 cycles:  517253491 heartbeat IPC: 0.64023 cumulative IPC: 0.55541 (Simulation time: 0 hr 17 min 39 sec) 
Heartbeat CPU  0 instructions:  345000001 cycles:  518808846 heartbeat IPC: 0.64294 cumulative IPC: 0.55572 (Simulation time: 0 hr 17 min 42 sec) 
Heartbeat CPU  0 instructions:  346000002 cycles:  520385647 heartbeat IPC: 0.63420 cumulative IPC: 0.55600 (Simulation time: 0 hr 17 min 46 sec) 
Heartbeat CPU  0 instructions:  347000000 cycles:  522382436 heartbeat IPC: 0.50080 cumulative IPC: 0.55575 (Simulation time: 0 hr 17 min 49 sec) 
Heartbeat CPU  0 instructions:  348000000 cycles:  523910233 heartbeat IPC: 0.65454 cumulative IPC: 0.55609 (Simulation time: 0 hr 17 min 53 sec) 
Heartbeat CPU  0 instructions:  349000001 cycles:  525435115 heartbeat IPC: 0.65579 cumulative IPC: 0.55643 (Simulation time: 0 hr 17 min 56 sec) 
Heartbeat CPU  0 instructions:  350000001 cycles:  527002126 heartbeat IPC: 0.63816 cumulative IPC: 0.55672 (Simulation time: 0 hr 17 min 59 sec) 
Heartbeat CPU  0 instructions:  351000002 cycles:  528583039 heartbeat IPC: 0.63255 cumulative IPC: 0.55698 (Simulation time: 0 hr 18 min 3 sec) 
Heartbeat CPU  0 instructions:  352000000 cycles:  530199572 heartbeat IPC: 0.61861 cumulative IPC: 0.55720 (Simulation time: 0 hr 18 min 6 sec) 
Heartbeat CPU  0 instructions:  353000002 cycles:  531807313 heartbeat IPC: 0.62199 cumulative IPC: 0.55743 (Simulation time: 0 hr 18 min 10 sec) 
Heartbeat CPU  0 instructions:  354000001 cycles:  533404358 heartbeat IPC: 0.62616 cumulative IPC: 0.55767 (Simulation time: 0 hr 18 min 13 sec) 
Heartbeat CPU  0 instructions:  355000002 cycles:  534984810 heartbeat IPC: 0.63273 cumulative IPC: 0.55793 (Simulation time: 0 hr 18 min 17 sec) 
Heartbeat CPU  0 instructions:  356000000 cycles:  536582918 heartbeat IPC: 0.62574 cumulative IPC: 0.55817 (Simulation time: 0 hr 18 min 20 sec) 
Heartbeat CPU  0 instructions:  357000001 cycles:  538176214 heartbeat IPC: 0.62763 cumulative IPC: 0.55841 (Simulation time: 0 hr 18 min 24 sec) 
Heartbeat CPU  0 instructions:  358000003 cycles:  539762483 heartbeat IPC: 0.63041 cumulative IPC: 0.55866 (Simulation time: 0 hr 18 min 27 sec) 
Heartbeat CPU  0 instructions:  359000002 cycles:  541305959 heartbeat IPC: 0.64789 cumulative IPC: 0.55895 (Simulation time: 0 hr 18 min 31 sec) 
Heartbeat CPU  0 instructions:  360000000 cycles:  542986129 heartbeat IPC: 0.59518 cumulative IPC: 0.55909 (Simulation time: 0 hr 18 min 34 sec) 
Heartbeat CPU  0 instructions:  361000000 cycles:  544283907 heartbeat IPC: 0.77055 cumulative IPC: 0.55967 (Simulation time: 0 hr 18 min 37 sec) 
Heartbeat CPU  0 instructions:  362000000 cycles:  545555150 heartbeat IPC: 0.78663 cumulative IPC: 0.56029 (Simulation time: 0 hr 18 min 40 sec) 
Heartbeat CPU  0 instructions:  363000002 cycles:  546821554 heartbeat IPC: 0.78964 cumulative IPC: 0.56091 (Simulation time: 0 hr 18 min 43 sec) 
Heartbeat CPU  0 instructions:  364000000 cycles:  548087683 heartbeat IPC: 0.78981 cumulative IPC: 0.56153 (Simulation time: 0 hr 18 min 46 sec) 
Heartbeat CPU  0 instructions:  365000002 cycles:  549353866 heartbeat IPC: 0.78978 cumulative IPC: 0.56214 (Simulation time: 0 hr 18 min 49 sec) 
Heartbeat CPU  0 instructions:  366000002 cycles:  550611012 heartbeat IPC: 0.79545 cumulative IPC: 0.56276 (Simulation time: 0 hr 18 min 52 sec) 
Heartbeat CPU  0 instructions:  367000001 cycles:  551866651 heartbeat IPC: 0.79641 cumulative IPC: 0.56338 (Simulation time: 0 hr 18 min 55 sec) 
Heartbeat CPU  0 instructions:  368000000 cycles:  553126460 heartbeat IPC: 0.79377 cumulative IPC: 0.56399 (Simulation time: 0 hr 18 min 59 sec) 
Heartbeat CPU  0 instructions:  369000000 cycles:  554387892 heartbeat IPC: 0.79275 cumulative IPC: 0.56460 (Simulation time: 0 hr 19 min 2 sec) 
Heartbeat CPU  0 instructions:  370000003 cycles:  555655620 heartbeat IPC: 0.78882 cumulative IPC: 0.56519 (Simulation time: 0 hr 19 min 5 sec) 
Heartbeat CPU  0 instructions:  371000001 cycles:  556917752 heartbeat IPC: 0.79231 cumulative IPC: 0.56579 (Simulation time: 0 hr 19 min 8 sec) 
Heartbeat CPU  0 instructions:  372000000 cycles:  558182211 heartbeat IPC: 0.79085 cumulative IPC: 0.56638 (Simulation time: 0 hr 19 min 11 sec) 
Heartbeat CPU  0 instructions:  373000000 cycles:  559444012 heartbeat IPC: 0.79252 cumulative IPC: 0.56697 (Simulation time: 0 hr 19 min 14 sec) 
Heartbeat CPU  0 instructions:  374000002 cycles:  560696550 heartbeat IPC: 0.79838 cumulative IPC: 0.56758 (Simulation time: 0 hr 19 min 17 sec) 
Heartbeat CPU  0 instructions:  375000001 cycles:  562323365 heartbeat IPC: 0.61470 cumulative IPC: 0.56773 (Simulation time: 0 hr 19 min 20 sec) 
Heartbeat CPU  0 instructions:  376000000 cycles:  563588630 heartbeat IPC: 0.79035 cumulative IPC: 0.56831 (Simulation time: 0 hr 19 min 24 sec) 
Heartbeat CPU  0 instructions:  377000001 cycles:  564848315 heartbeat IPC: 0.79385 cumulative IPC: 0.56890 (Simulation time: 0 hr 19 min 27 sec) 
Heartbeat CPU  0 instructions:  378000001 cycles:  566099274 heartbeat IPC: 0.79939 cumulative IPC: 0.56949 (Simulation time: 0 hr 19 min 30 sec) 
Heartbeat CPU  0 instructions:  379000000 cycles:  567330787 heartbeat IPC: 0.81201 cumulative IPC: 0.57010 (Simulation time: 0 hr 19 min 33 sec) 
Heartbeat CPU  0 instructions:  380000000 cycles:  568557784 heartbeat IPC: 0.81500 cumulative IPC: 0.57071 (Simulation time: 0 hr 19 min 36 sec) 
Heartbeat CPU  0 instructions:  381000003 cycles:  569786450 heartbeat IPC: 0.81389 cumulative IPC: 0.57132 (Simulation time: 0 hr 19 min 39 sec) 
Heartbeat CPU  0 instructions:  382000003 cycles:  571014692 heartbeat IPC: 0.81417 cumulative IPC: 0.57192 (Simulation time: 0 hr 19 min 42 sec) 
Heartbeat CPU  0 instructions:  383000003 cycles:  572240051 heartbeat IPC: 0.81609 cumulative IPC: 0.57253 (Simulation time: 0 hr 19 min 45 sec) 
Heartbeat CPU  0 instructions:  384000000 cycles:  573477024 heartbeat IPC: 0.80842 cumulative IPC: 0.57312 (Simulation time: 0 hr 19 min 48 sec) 
Heartbeat CPU  0 instructions:  385000003 cycles:  574719649 heartbeat IPC: 0.80475 cumulative IPC: 0.57370 (Simulation time: 0 hr 19 min 51 sec) 
Heartbeat CPU  0 instructions:  386000001 cycles:  575960581 heartbeat IPC: 0.80584 cumulative IPC: 0.57427 (Simulation time: 0 hr 19 min 54 sec) 
Heartbeat CPU  0 instructions:  387000003 cycles:  577204534 heartbeat IPC: 0.80389 cumulative IPC: 0.57485 (Simulation time: 0 hr 19 min 58 sec) 
Heartbeat CPU  0 instructions:  388000000 cycles:  578455066 heartbeat IPC: 0.79966 cumulative IPC: 0.57541 (Simulation time: 0 hr 20 min 1 sec) 
Heartbeat CPU  0 instructions:  389000003 cycles:  579696959 heartbeat IPC: 0.80522 cumulative IPC: 0.57598 (Simulation time: 0 hr 20 min 4 sec) 
Heartbeat CPU  0 instructions:  390000000 cycles:  581720251 heartbeat IPC: 0.49424 cumulative IPC: 0.57565 (Simulation time: 0 hr 20 min 7 sec) 
Heartbeat CPU  0 instructions:  391000003 cycles:  584600475 heartbeat IPC: 0.34720 cumulative IPC: 0.57435 (Simulation time: 0 hr 20 min 11 sec) 
Heartbeat CPU  0 instructions:  392000000 cycles:  587456346 heartbeat IPC: 0.35015 cumulative IPC: 0.57309 (Simulation time: 0 hr 20 min 15 sec) 
Heartbeat CPU  0 instructions:  393000003 cycles:  590302890 heartbeat IPC: 0.35130 cumulative IPC: 0.57186 (Simulation time: 0 hr 20 min 19 sec) 
Heartbeat CPU  0 instructions:  394000002 cycles:  593160734 heartbeat IPC: 0.34991 cumulative IPC: 0.57063 (Simulation time: 0 hr 20 min 23 sec) 
Heartbeat CPU  0 instructions:  395000002 cycles:  596003557 heartbeat IPC: 0.35176 cumulative IPC: 0.56943 (Simulation time: 0 hr 20 min 27 sec) 
Heartbeat CPU  0 instructions:  396000000 cycles:  598862203 heartbeat IPC: 0.34982 cumulative IPC: 0.56822 (Simulation time: 0 hr 20 min 31 sec) 
Heartbeat CPU  0 instructions:  397000002 cycles:  601710073 heartbeat IPC: 0.35114 cumulative IPC: 0.56704 (Simulation time: 0 hr 20 min 35 sec) 
Heartbeat CPU  0 instructions:  398000001 cycles:  604568482 heartbeat IPC: 0.34984 cumulative IPC: 0.56587 (Simulation time: 0 hr 20 min 39 sec) 
Heartbeat CPU  0 instructions:  399000001 cycles:  607430677 heartbeat IPC: 0.34938 cumulative IPC: 0.56469 (Simulation time: 0 hr 20 min 42 sec) 
Heartbeat CPU  0 instructions:  400000000 cycles:  610295188 heartbeat IPC: 0.34910 cumulative IPC: 0.56353 (Simulation time: 0 hr 20 min 46 sec) 
Heartbeat CPU  0 instructions:  401000001 cycles:  613135647 heartbeat IPC: 0.35206 cumulative IPC: 0.56241 (Simulation time: 0 hr 20 min 50 sec) 
Heartbeat CPU  0 instructions:  402000000 cycles:  616196313 heartbeat IPC: 0.32673 cumulative IPC: 0.56107 (Simulation time: 0 hr 20 min 54 sec) 
Heartbeat CPU  0 instructions:  403000000 cycles:  619075637 heartbeat IPC: 0.34730 cumulative IPC: 0.55993 (Simulation time: 0 hr 20 min 58 sec) 
Heartbeat CPU  0 instructions:  404000000 cycles:  621961458 heartbeat IPC: 0.34652 cumulative IPC: 0.55880 (Simulation time: 0 hr 21 min 2 sec) 
Heartbeat CPU  0 instructions:  405000000 cycles:  624832163 heartbeat IPC: 0.34835 cumulative IPC: 0.55770 (Simulation time: 0 hr 21 min 6 sec) 
Heartbeat CPU  0 instructions:  406000000 cycles:  627699300 heartbeat IPC: 0.34878 cumulative IPC: 0.55661 (Simulation time: 0 hr 21 min 10 sec) 
Heartbeat CPU  0 instructions:  407000001 cycles:  630574882 heartbeat IPC: 0.34776 cumulative IPC: 0.55552 (Simulation time: 0 hr 21 min 14 sec) 
Heartbeat CPU  0 instructions:  408000000 cycles:  633443811 heartbeat IPC: 0.34856 cumulative IPC: 0.55445 (Simulation time: 0 hr 21 min 18 sec) 
Heartbeat CPU  0 instructions:  409000002 cycles:  636297760 heartbeat IPC: 0.35039 cumulative IPC: 0.55341 (Simulation time: 0 hr 21 min 22 sec) 
Heartbeat CPU  0 instructions:  410000003 cycles:  639174401 heartbeat IPC: 0.34763 cumulative IPC: 0.55236 (Simulation time: 0 hr 21 min 26 sec) 
Heartbeat CPU  0 instructions:  411000000 cycles:  642039083 heartbeat IPC: 0.34908 cumulative IPC: 0.55132 (Simulation time: 0 hr 21 min 30 sec) 
Heartbeat CPU  0 instructions:  412000000 cycles:  644894631 heartbeat IPC: 0.35020 cumulative IPC: 0.55031 (Simulation time: 0 hr 21 min 34 sec) 
Heartbeat CPU  0 instructions:  413000002 cycles:  647748561 heartbeat IPC: 0.35039 cumulative IPC: 0.54931 (Simulation time: 0 hr 21 min 38 sec) 
Heartbeat CPU  0 instructions:  414000002 cycles:  650810551 heartbeat IPC: 0.32658 cumulative IPC: 0.54812 (Simulation time: 0 hr 21 min 42 sec) 
Heartbeat CPU  0 instructions:  415000000 cycles:  652323222 heartbeat IPC: 0.66108 cumulative IPC: 0.54842 (Simulation time: 0 hr 21 min 46 sec) 
Heartbeat CPU  0 instructions:  416000000 cycles:  653759353 heartbeat IPC: 0.69632 cumulative IPC: 0.54878 (Simulation time: 0 hr 21 min 49 sec) 
Heartbeat CPU  0 instructions:  417000003 cycles:  655195351 heartbeat IPC: 0.69638 cumulative IPC: 0.54915 (Simulation time: 0 hr 21 min 53 sec) 
Heartbeat CPU  0 instructions:  418000000 cycles:  656636290 heartbeat IPC: 0.69399 cumulative IPC: 0.54951 (Simulation time: 0 hr 21 min 56 sec) 
Heartbeat CPU  0 instructions:  419000002 cycles:  658080051 heartbeat IPC: 0.69264 cumulative IPC: 0.54987 (Simulation time: 0 hr 22 min 0 sec) 
Heartbeat CPU  0 instructions:  420000000 cycles:  659524153 heartbeat IPC: 0.69247 cumulative IPC: 0.55022 (Simulation time: 0 hr 22 min 3 sec) 
Heartbeat CPU  0 instructions:  421000000 cycles:  660966984 heartbeat IPC: 0.69308 cumulative IPC: 0.55058 (Simulation time: 0 hr 22 min 7 sec) 
Heartbeat CPU  0 instructions:  422000001 cycles:  662409680 heartbeat IPC: 0.69315 cumulative IPC: 0.55093 (Simulation time: 0 hr 22 min 10 sec) 
Heartbeat CPU  0 instructions:  423000003 cycles:  663847871 heartbeat IPC: 0.69532 cumulative IPC: 0.55128 (Simulation time: 0 hr 22 min 14 sec) 
Heartbeat CPU  0 instructions:  424000000 cycles:  665272822 heartbeat IPC: 0.70178 cumulative IPC: 0.55165 (Simulation time: 0 hr 22 min 18 sec) 
Heartbeat CPU  0 instructions:  425000003 cycles:  666690119 heartbeat IPC: 0.70557 cumulative IPC: 0.55202 (Simulation time: 0 hr 22 min 21 sec) 
Heartbeat CPU  0 instructions:  426000002 cycles:  668099684 heartbeat IPC: 0.70944 cumulative IPC: 0.55239 (Simulation time: 0 hr 22 min 25 sec) 
Heartbeat CPU  0 instructions:  427000003 cycles:  670085905 heartbeat IPC: 0.50347 cumulative IPC: 0.55223 (Simulation time: 0 hr 22 min 29 sec) 
Heartbeat CPU  0 instructions:  428000000 cycles:  671542384 heartbeat IPC: 0.68659 cumulative IPC: 0.55256 (Simulation time: 0 hr 22 min 33 sec) 
Heartbeat CPU  0 instructions:  429000001 cycles:  672982457 heartbeat IPC: 0.69441 cumulative IPC: 0.55290 (Simulation time: 0 hr 22 min 36 sec) 
Heartbeat CPU  0 instructions:  430000003 cycles:  674433509 heartbeat IPC: 0.68916 cumulative IPC: 0.55323 (Simulation time: 0 hr 22 min 40 sec) 
Heartbeat CPU  0 instructions:  431000001 cycles:  675868874 heartbeat IPC: 0.69669 cumulative IPC: 0.55358 (Simulation time: 0 hr 22 min 43 sec) 
Heartbeat CPU  0 instructions:  432000000 cycles:  677326736 heartbeat IPC: 0.68594 cumulative IPC: 0.55390 (Simulation time: 0 hr 22 min 47 sec) 
Heartbeat CPU  0 instructions:  433000001 cycles:  678764404 heartbeat IPC: 0.69557 cumulative IPC: 0.55424 (Simulation time: 0 hr 22 min 51 sec) 
Heartbeat CPU  0 instructions:  434000001 cycles:  680207378 heartbeat IPC: 0.69301 cumulative IPC: 0.55457 (Simulation time: 0 hr 22 min 54 sec) 
Heartbeat CPU  0 instructions:  435000000 cycles:  681657229 heartbeat IPC: 0.68973 cumulative IPC: 0.55490 (Simulation time: 0 hr 22 min 58 sec) 
Heartbeat CPU  0 instructions:  436000000 cycles:  683131587 heartbeat IPC: 0.67826 cumulative IPC: 0.55520 (Simulation time: 0 hr 23 min 1 sec) 
Heartbeat CPU  0 instructions:  437000000 cycles:  684579642 heartbeat IPC: 0.69058 cumulative IPC: 0.55552 (Simulation time: 0 hr 23 min 5 sec) 
Heartbeat CPU  0 instructions:  438000000 cycles:  686014307 heartbeat IPC: 0.69703 cumulative IPC: 0.55585 (Simulation time: 0 hr 23 min 9 sec) 
Heartbeat CPU  0 instructions:  439000002 cycles:  687788465 heartbeat IPC: 0.56365 cumulative IPC: 0.55588 (Simulation time: 0 hr 23 min 12 sec) 
Heartbeat CPU  0 instructions:  440000000 cycles:  689075004 heartbeat IPC: 0.77728 cumulative IPC: 0.55634 (Simulation time: 0 hr 23 min 15 sec) 
Heartbeat CPU  0 instructions:  441000001 cycles:  690338400 heartbeat IPC: 0.79152 cumulative IPC: 0.55683 (Simulation time: 0 hr 23 min 19 sec) 
Heartbeat CPU  0 instructions:  442000001 cycles:  691581582 heartbeat IPC: 0.80439 cumulative IPC: 0.55733 (Simulation time: 0 hr 23 min 22 sec) 
Heartbeat CPU  0 instructions:  443000000 cycles:  692840380 heartbeat IPC: 0.79441 cumulative IPC: 0.55781 (Simulation time: 0 hr 23 min 26 sec) 
Heartbeat CPU  0 instructions:  444000000 cycles:  694114308 heartbeat IPC: 0.78497 cumulative IPC: 0.55828 (Simulation time: 0 hr 23 min 29 sec) 
Heartbeat CPU  0 instructions:  445000000 cycles:  695386955 heartbeat IPC: 0.78576 cumulative IPC: 0.55875 (Simulation time: 0 hr 23 min 32 sec) 
Heartbeat CPU  0 instructions:  446000002 cycles:  696655575 heartbeat IPC: 0.78826 cumulative IPC: 0.55922 (Simulation time: 0 hr 23 min 36 sec) 
Heartbeat CPU  0 instructions:  447000001 cycles:  697916001 heartbeat IPC: 0.79338 cumulative IPC: 0.55970 (Simulation time: 0 hr 23 min 39 sec) 
Heartbeat CPU  0 instructions:  448000000 cycles:  699184577 heartbeat IPC: 0.78828 cumulative IPC: 0.56017 (Simulation time: 0 hr 23 min 42 sec) 
Heartbeat CPU  0 instructions:  449000003 cycles:  700457231 heartbeat IPC: 0.78576 cumulative IPC: 0.56063 (Simulation time: 0 hr 23 min 46 sec) 
Heartbeat CPU  0 instructions:  450000000 cycles:  701724987 heartbeat IPC: 0.78879 cumulative IPC: 0.56109 (Simulation time: 0 hr 23 min 49 sec) 
Heartbeat CPU  0 instructions:  451000001 cycles:  702992593 heartbeat IPC: 0.78889 cumulative IPC: 0.56155 (Simulation time: 0 hr 23 min 52 sec) 
Heartbeat CPU  0 instructions:  452000000 cycles:  704252090 heartbeat IPC: 0.79397 cumulative IPC: 0.56202 (Simulation time: 0 hr 23 min 55 sec) 
Heartbeat CPU  0 instructions:  453000003 cycles:  705508287 heartbeat IPC: 0.79606 cumulative IPC: 0.56249 (Simulation time: 0 hr 23 min 58 sec) 
Heartbeat CPU  0 instructions:  454000001 cycles:  707190668 heartbeat IPC: 0.59439 cumulative IPC: 0.56257 (Simulation time: 0 hr 24 min 1 sec) 
Heartbeat CPU  0 instructions:  455000003 cycles:  708478005 heartbeat IPC: 0.77680 cumulative IPC: 0.56301 (Simulation time: 0 hr 24 min 4 sec) 
Heartbeat CPU  0 instructions:  456000000 cycles:  709722117 heartbeat IPC: 0.80378 cumulative IPC: 0.56349 (Simulation time: 0 hr 24 min 7 sec) 
Heartbeat CPU  0 instructions:  457000001 cycles:  710965382 heartbeat IPC: 0.80433 cumulative IPC: 0.56396 (Simulation time: 0 hr 24 min 10 sec) 
Heartbeat CPU  0 instructions:  458000003 cycles:  712206353 heartbeat IPC: 0.80582 cumulative IPC: 0.56443 (Simulation time: 0 hr 24 min 14 sec) 
Heartbeat CPU  0 instructions:  459000001 cycles:  713450974 heartbeat IPC: 0.80346 cumulative IPC: 0.56490 (Simulation time: 0 hr 24 min 17 sec) 
Heartbeat CPU  0 instructions:  460000000 cycles:  714697937 heartbeat IPC: 0.80195 cumulative IPC: 0.56537 (Simulation time: 0 hr 24 min 20 sec) 
Heartbeat CPU  0 instructions:  461000003 cycles:  715951181 heartbeat IPC: 0.79793 cumulative IPC: 0.56582 (Simulation time: 0 hr 24 min 23 sec) 
Heartbeat CPU  0 instructions:  462000001 cycles:  717204987 heartbeat IPC: 0.79757 cumulative IPC: 0.56628 (Simulation time: 0 hr 24 min 26 sec) 
Heartbeat CPU  0 instructions:  463000001 cycles:  718461327 heartbeat IPC: 0.79596 cumulative IPC: 0.56673 (Simulation time: 0 hr 24 min 29 sec) 
Heartbeat CPU  0 instructions:  464000000 cycles:  719715032 heartbeat IPC: 0.79764 cumulative IPC: 0.56718 (Simulation time: 0 hr 24 min 32 sec) 
Heartbeat CPU  0 instructions:  465000001 cycles:  720959309 heartbeat IPC: 0.80368 cumulative IPC: 0.56764 (Simulation time: 0 hr 24 min 35 sec) 
Heartbeat CPU  0 instructions:  466000003 cycles:  722200571 heartbeat IPC: 0.80563 cumulative IPC: 0.56809 (Simulation time: 0 hr 24 min 38 sec) 
Heartbeat CPU  0 instructions:  467000003 cycles:  723448193 heartbeat IPC: 0.80152 cumulative IPC: 0.56855 (Simulation time: 0 hr 24 min 41 sec) 
Heartbeat CPU  0 instructions:  468000000 cycles:  724697259 heartbeat IPC: 0.80060 cumulative IPC: 0.56899 (Simulation time: 0 hr 24 min 45 sec) 
Heartbeat CPU  0 instructions:  469000002 cycles:  726272060 heartbeat IPC: 0.63500 cumulative IPC: 0.56915 (Simulation time: 0 hr 24 min 48 sec) 
Heartbeat CPU  0 instructions:  470000003 cycles:  729211656 heartbeat IPC: 0.34018 cumulative IPC: 0.56812 (Simulation time: 0 hr 24 min 52 sec) 
Heartbeat CPU  0 instructions:  471000001 cycles:  732041018 heartbeat IPC: 0.35344 cumulative IPC: 0.56719 (Simulation time: 0 hr 24 min 56 sec) 
Heartbeat CPU  0 instructions:  472000000 cycles:  734866036 heartbeat IPC: 0.35398 cumulative IPC: 0.56627 (Simulation time: 0 hr 25 min 0 sec) 
Heartbeat CPU  0 instructions:  473000003 cycles:  737665606 heartbeat IPC: 0.35720 cumulative IPC: 0.56539 (Simulation time: 0 hr 25 min 3 sec) 
Heartbeat CPU  0 instructions:  474000003 cycles:  740436648 heartbeat IPC: 0.36088 cumulative IPC: 0.56453 (Simulation time: 0 hr 25 min 7 sec) 
Heartbeat CPU  0 instructions:  475000002 cycles:  743199678 heartbeat IPC: 0.36192 cumulative IPC: 0.56369 (Simulation time: 0 hr 25 min 11 sec) 
Heartbeat CPU  0 instructions:  476000000 cycles:  745969469 heartbeat IPC: 0.36104 cumulative IPC: 0.56285 (Simulation time: 0 hr 25 min 15 sec) 
Heartbeat CPU  0 instructions:  477000003 cycles:  748728148 heartbeat IPC: 0.36249 cumulative IPC: 0.56203 (Simulation time: 0 hr 25 min 19 sec) 
Heartbeat CPU  0 instructions:  478000002 cycles:  751491534 heartbeat IPC: 0.36187 cumulative IPC: 0.56121 (Simulation time: 0 hr 25 min 23 sec) 
Heartbeat CPU  0 instructions:  479000003 cycles:  754256123 heartbeat IPC: 0.36172 cumulative IPC: 0.56039 (Simulation time: 0 hr 25 min 27 sec) 
Heartbeat CPU  0 instructions:  480000000 cycles:  757007511 heartbeat IPC: 0.36345 cumulative IPC: 0.55959 (Simulation time: 0 hr 25 min 31 sec) 
Heartbeat CPU  0 instructions:  481000001 cycles:  759851758 heartbeat IPC: 0.35159 cumulative IPC: 0.55872 (Simulation time: 0 hr 25 min 34 sec) 
Heartbeat CPU  0 instructions:  482000000 cycles:  762867746 heartbeat IPC: 0.33157 cumulative IPC: 0.55772 (Simulation time: 0 hr 25 min 38 sec) 
Heartbeat CPU  0 instructions:  483000001 cycles:  765718149 heartbeat IPC: 0.35083 cumulative IPC: 0.55687 (Simulation time: 0 hr 25 min 42 sec) 
Heartbeat CPU  0 instructions:  484000000 cycles:  768568699 heartbeat IPC: 0.35081 cumulative IPC: 0.55602 (Simulation time: 0 hr 25 min 46 sec) 
Heartbeat CPU  0 instructions:  485000001 cycles:  771418600 heartbeat IPC: 0.35089 cumulative IPC: 0.55517 (Simulation time: 0 hr 25 min 50 sec) 
Heartbeat CPU  0 instructions:  486000002 cycles:  774262754 heartbeat IPC: 0.35160 cumulative IPC: 0.55434 (Simulation time: 0 hr 25 min 54 sec) 
Heartbeat CPU  0 instructions:  487000003 cycles:  777112696 heartbeat IPC: 0.35088 cumulative IPC: 0.55351 (Simulation time: 0 hr 25 min 58 sec) 
Heartbeat CPU  0 instructions:  488000000 cycles:  779957663 heartbeat IPC: 0.35150 cumulative IPC: 0.55269 (Simulation time: 0 hr 26 min 2 sec) 
Heartbeat CPU  0 instructions:  489000002 cycles:  782803551 heartbeat IPC: 0.35138 cumulative IPC: 0.55188 (Simulation time: 0 hr 26 min 6 sec) 
Heartbeat CPU  0 instructions:  490000003 cycles:  785647924 heartbeat IPC: 0.35157 cumulative IPC: 0.55108 (Simulation time: 0 hr 26 min 10 sec) 
Heartbeat CPU  0 instructions:  491000003 cycles:  788494348 heartbeat IPC: 0.35132 cumulative IPC: 0.55028 (Simulation time: 0 hr 26 min 14 sec) 
Heartbeat CPU  0 instructions:  492000000 cycles:  791333145 heartbeat IPC: 0.35226 cumulative IPC: 0.54949 (Simulation time: 0 hr 26 min 18 sec) 
Heartbeat CPU  0 instructions:  493000002 cycles:  794117260 heartbeat IPC: 0.35918 cumulative IPC: 0.54875 (Simulation time: 0 hr 26 min 22 sec) 
Heartbeat CPU  0 instructions:  494000002 cycles:  796268993 heartbeat IPC: 0.46474 cumulative IPC: 0.54850 (Simulation time: 0 hr 26 min 25 sec) 
Heartbeat CPU  0 instructions:  495000003 cycles:  797733404 heartbeat IPC: 0.68287 cumulative IPC: 0.54877 (Simulation time: 0 hr 26 min 29 sec) 
Heartbeat CPU  0 instructions:  496000000 cycles:  799197726 heartbeat IPC: 0.68291 cumulative IPC: 0.54904 (Simulation time: 0 hr 26 min 32 sec) 
Heartbeat CPU  0 instructions:  497000000 cycles:  800660378 heartbeat IPC: 0.68369 cumulative IPC: 0.54931 (Simulation time: 0 hr 26 min 35 sec) 
Heartbeat CPU  0 instructions:  498000002 cycles:  802117539 heartbeat IPC: 0.68627 cumulative IPC: 0.54959 (Simulation time: 0 hr 26 min 39 sec) 
Heartbeat CPU  0 instructions:  499000002 cycles:  803550990 heartbeat IPC: 0.69762 cumulative IPC: 0.54988 (Simulation time: 0 hr 26 min 42 sec) 
Heartbeat CPU  0 instructions:  500000000 cycles:  804978550 heartbeat IPC: 0.70049 cumulative IPC: 0.55018 (Simulation time: 0 hr 26 min 45 sec) 
Heartbeat CPU  0 instructions:  501000000 cycles:  806407910 heartbeat IPC: 0.69961 cumulative IPC: 0.55047 (Simulation time: 0 hr 26 min 48 sec) 
Heartbeat CPU  0 instructions:  502000001 cycles:  807856823 heartbeat IPC: 0.69017 cumulative IPC: 0.55075 (Simulation time: 0 hr 26 min 52 sec) 
Heartbeat CPU  0 instructions:  503000000 cycles:  809309405 heartbeat IPC: 0.68843 cumulative IPC: 0.55102 (Simulation time: 0 hr 26 min 55 sec) 
Heartbeat CPU  0 instructions:  504000000 cycles:  810767651 heartbeat IPC: 0.68576 cumulative IPC: 0.55129 (Simulation time: 0 hr 26 min 58 sec) 
Heartbeat CPU  0 instructions:  505000000 cycles:  812233687 heartbeat IPC: 0.68211 cumulative IPC: 0.55155 (Simulation time: 0 hr 27 min 2 sec) 
Heartbeat CPU  0 instructions:  506000001 cycles:  814235504 heartbeat IPC: 0.49955 cumulative IPC: 0.55141 (Simulation time: 0 hr 27 min 5 sec) 
Heartbeat CPU  0 instructions:  507000002 cycles:  815708046 heartbeat IPC: 0.67910 cumulative IPC: 0.55166 (Simulation time: 0 hr 27 min 9 sec) 
Heartbeat CPU  0 instructions:  508000000 cycles:  817180614 heartbeat IPC: 0.67908 cumulative IPC: 0.55192 (Simulation time: 0 hr 27 min 12 sec) 
Heartbeat CPU  0 instructions:  509000000 cycles:  818653655 heartbeat IPC: 0.67887 cumulative IPC: 0.55217 (Simulation time: 0 hr 27 min 15 sec) 
Heartbeat CPU  0 instructions:  510000001 cycles:  820150274 heartbeat IPC: 0.66817 cumulative IPC: 0.55240 (Simulation time: 0 hr 27 min 19 sec) 
Heartbeat CPU  0 instructions:  511000002 cycles:  821636962 heartbeat IPC: 0.67264 cumulative IPC: 0.55265 (Simulation time: 0 hr 27 min 22 sec) 
Heartbeat CPU  0 instructions:  512000000 cycles:  823122829 heartbeat IPC: 0.67301 cumulative IPC: 0.55289 (Simulation time: 0 hr 27 min 25 sec) 
[...]
scooby_state_44331a|21|-29 1,0,0,0,0,0,0,0,0,0,0,0,0,0,0,1,
scooby_state_442e0a|51|1 1,0,0,0,0,0,0,0,0,0,0,0,0,0,0,1,
scooby_state_4193e8|14|6 1,0,0,0,0,0,0,0,0,0,0,0,0,0,0,1,
scooby_state_445631|33|-4 1,0,0,0,0,0,0,0,0,0,0,0,0,0,0,1,
scooby_state_442da5|3|0 1,0,0,0,0,0,0,0,0,0,0,0,0,0,0,1,
scooby_state_443a1d|59|59 1,0,0,0,0,0,0,0,0,0,0,0,0,0,0,1,
scooby_state_44317e|41|1 1,0,0,0,0,0,0,0,0,0,0,0,0,0,0,1,
scooby_state_442da5|56|4 1,0,0,0,0,0,0,0,0,0,0,0,0,0,0,1,
scooby_state_443334|51|30 1,0,0,0,0,0,0,0,0,0,0,0,0,0,0,1,
scooby_state_44449e|7|0 1,0,0,0,0,0,0,0,0,0,0,0,0,0,0,1,
scooby_state_44330d|62|2 1,0,0,0,0,0,0,0,0,0,0,0,0,0,0,1,
scooby_state_4454c9|36|0 1,0,0,0,0,0,0,0,0,0,0,0,0,0,0,1,
scooby_state_44460f|38|-20 1,0,0,0,0,0,0,0,0,0,0,0,0,0,0,1,
scooby_state_442dbd|5|4 1,0,0,0,0,0,0,0,0,0,0,0,0,0,0,1,
scooby_state_44331a|23|-29 1,0,0,0,0,0,0,0,0,0,0,0,0,0,0,1,
scooby_state_444464|53|33 1,0,0,0,0,0,0,0,0,0,0,0,0,0,0,1,
scooby_state_445449|42|0 1,0,0,0,0,0,0,0,0,0,0,0,0,0,0,1,
scooby_state_443334|53|30 1,0,0,0,0,0,0,0,0,0,0,0,0,0,0,1,
scooby_state_442ea3|32|-25 1,0,0,0,0,0,0,0,0,0,0,0,0,0,0,1,
scooby_state_437a96|63|0 1,0,0,0,0,0,0,0,0,0,0,0,0,0,0,1,
scooby_state_442db1|60|1 1,0,0,0,0,0,0,0,0,0,0,0,0,0,0,1,
scooby_state_44460f|55|4 1,0,0,0,0,0,0,0,0,0,0,0,0,0,0,1,
scooby_state_4439d6|39|-7 1,0,0,0,0,0,0,0,0,0,0,0,0,0,0,1,
scooby_state_442db1|59|1 1,0,0,0,0,0,0,0,0,0,0,0,0,0,0,1,
scooby_state_4453ed|34|3 1,0,0,0,0,0,0,0,0,0,0,0,0,0,0,1,
scooby_state_4442e1|59|4 1,0,0,0,0,0,0,0,0,0,0,0,0,0,0,1,
scooby_state_44460f|58|2 1,0,0,0,0,0,0,0,0,0,0,0,0,0,0,1,
scooby_state_416b01|44|1 1,0,0,0,0,0,0,0,0,0,0,0,0,0,0,1,
scooby_state_4178c3|35|1 1,0,0,0,0,0,0,0,0,0,0,0,0,0,0,1,
scooby_state_442db1|57|1 1,0,0,0,0,0,0,0,0,0,0,0,0,0,0,1,
scooby_state_443050|56|3 1,0,0,0,0,0,0,0,0,0,0,0,0,0,0,1,
scooby_state_44330d|8|4 1,0,0,0,0,0,0,0,0,0,0,0,0,0,0,1,
scooby_state_442d99|20|0 1,0,0,0,0,0,0,0,0,0,0,0,0,0,0,1,
scooby_state_4357d6|61|25 1,0,0,0,0,0,0,0,0,0,0,0,0,0,0,1,
scooby_state_4438de|5|0 1,0,0,0,0,0,0,0,0,0,0,0,0,0,0,1,
scooby_state_4442e8|46|0 1,0,0,0,0,0,0,0,0,0,0,0,0,0,0,1,
scooby_state_442ec6|59|1 1,0,0,0,0,0,0,0,0,0,0,0,0,0,0,1,
scooby_state_442dc2|55|1 1,0,0,0,0,0,0,0,0,0,0,0,0,0,0,1,
scooby_state_442d80|54|1 1,0,0,0,0,0,0,0,0,0,0,0,0,0,0,1,
scooby_state_443baf|60|0 1,0,0,0,0,0,0,0,0,0,0,0,0,0,0,1,
scooby_state_445938|7|-4 1,0,0,0,0,0,0,0,0,0,0,0,0,0,0,1,
scooby_state_4446a2|57|0 1,0,0,0,0,0,0,0,0,0,0,0,0,0,0,1,
scooby_state_445727|47|-16 1,0,0,0,0,0,0,0,0,0,0,0,0,0,0,1,
scooby_state_443329|50|-1 1,0,0,0,0,0,0,0,0,0,0,0,0,0,0,1,
scooby_state_443050|32|4 1,0,0,0,0,0,0,0,0,0,0,0,0,0,0,1,
scooby_state_445700|51|2 1,0,0,0,0,0,0,0,0,0,0,0,0,0,0,1,
scooby_state_444780|30|1 1,0,0,0,0,0,0,0,0,0,0,0,0,0,0,1,
scooby_state_444405|57|9 1,0,0,0,0,0,0,0,0,0,0,0,0,0,0,1,
scooby_state_4442c6|35|0 1,0,0,0,0,0,0,0,0,0,0,0,0,0,0,1,
scooby_state_417300|12|1 1,0,0,0,0,0,0,0,0,0,0,0,0,0,0,1,
scooby_state_442d99|42|30 1,0,0,0,0,0,0,0,0,0,0,0,0,0,0,1,
scooby_state_4187c3|31|1 1,0,0,0,0,0,0,0,0,0,0,0,0,0,0,1,
scooby_state_445657|5|-56 1,0,0,0,0,0,0,0,0,0,0,0,0,0,0,1,
scooby_state_44330d|51|4 1,0,0,0,0,0,0,0,0,0,0,0,0,0,0,1,
scooby_state_442db1|12|-29 1,0,0,0,0,0,0,0,0,0,0,0,0,0,0,1,
scooby_state_445681|46|32 1,0,0,0,0,0,0,0,0,0,0,0,0,0,0,1,
scooby_state_442db1|8|-29 1,0,0,0,0,0,0,0,0,0,0,0,0,0,0,1,
scooby_state_437b64|54|0 0,0,0,0,0,1,0,0,0,0,0,0,0,0,0,1,
scooby_state_445690|51|10 1,0,0,0,0,0,0,0,0,0,0,0,0,0,0,1,
scooby_state_44330d|52|2 1,0,0,0,0,0,0,0,0,0,0,0,0,0,0,1,
scooby_state_4442ae|40|-17 1,0,0,0,0,0,0,0,0,0,0,0,0,0,0,1,
scooby_state_416cb2|12|-1 1,0,0,0,0,0,0,0,0,0,0,0,0,0,0,1,
scooby_state_442d99|33|30 1,0,0,0,0,0,0,0,0,0,0,0,0,0,0,1,
scooby_state_442d99|32|30 1,0,0,0,0,0,0,0,0,0,0,0,0,0,0,1,
scooby_state_4453dd|41|31 1,0,0,0,0,0,0,0,0,0,0,0,0,0,0,1,
scooby_state_44449e|38|0 1,0,0,0,0,0,0,0,0,0,0,0,0,0,0,1,
scooby_state_442dbd|29|4 1,0,0,0,0,0,0,0,0,0,0,0,0,0,0,1,
scooby_state_445631|14|-30 1,0,0,0,0,0,0,0,0,0,0,0,0,0,0,1,
scooby_state_445681|33|25 1,0,0,0,0,0,0,0,0,0,0,0,0,0,0,1,
scooby_state_44449e|43|0 1,0,0,0,0,0,0,0,0,0,0,0,0,0,0,1,
scooby_state_44341a|8|4 1,0,0,0,0,0,0,0,0,0,0,0,0,0,0,1,
scooby_state_437541|21|1 1,0,0,0,0,0,0,0,0,0,0,0,0,0,0,1,
scooby_state_443b90|46|2 1,0,0,0,0,0,0,0,0,0,0,0,0,0,0,1,
scooby_state_4456fb|51|0 1,0,0,0,0,0,0,0,0,0,0,0,0,0,0,1,
scooby_state_445700|43|2 1,0,0,0,0,0,0,0,0,0,0,0,0,0,0,1,
scooby_state_443946|42|4 1,0,0,0,0,0,0,0,0,0,0,0,0,0,0,1,
scooby_state_445428|48|10 1,0,0,0,0,0,0,0,0,0,0,0,0,0,0,1,
scooby_state_443b81|31|13 1,0,0,0,0,0,0,0,0,0,0,0,0,0,0,1,
scooby_state_44551d|4|-20 1,0,0,0,0,0,0,0,0,0,0,0,0,0,0,1,
scooby_state_443c00|44|0 1,0,0,0,0,0,0,0,0,0,0,0,0,0,0,1,
scooby_state_443144|12|1 1,0,0,0,0,0,0,0,0,0,0,0,0,0,0,1,
scooby_state_443a7c|16|0 1,0,0,0,0,0,0,0,0,0,0,0,0,0,0,1,
scooby_state_43615e|46|2 1,0,0,0,0,0,0,0,0,0,0,0,0,0,0,1,
scooby_state_4438e4|20|0 1,0,0,0,0,0,0,0,0,0,0,0,0,0,0,1,
scooby_state_4438de|16|0 1,0,0,0,0,0,0,0,0,0,0,0,0,0,0,1,
scooby_state_4438de|33|33 1,0,0,0,0,0,0,0,0,0,0,0,0,0,0,1,
scooby_state_418ec1|54|5 1,0,0,0,0,0,0,0,0,0,0,0,0,0,0,1,
scooby_state_4456c6|18|4 1,0,0,0,0,0,0,0,0,0,0,0,0,0,0,1,
scooby_state_4376c6|27|1 1,0,0,0,0,0,0,0,0,0,0,0,0,0,0,1,
scooby_state_445631|30|7 1,0,0,0,0,0,0,0,0,0,0,0,0,0,0,1,
scooby_state_44557c|58|0 1,0,0,0,0,0,0,0,0,0,0,0,0,0,0,1,
scooby_state_4453ed|5|-30 1,0,0,0,0,0,0,0,0,0,0,0,0,0,0,1,
scooby_state_445657|14|-43 1,0,0,0,0,0,0,0,0,0,0,0,0,0,0,1,
scooby_state_4a3bf2|7|-34 1,0,0,0,0,0,0,0,0,0,0,0,0,0,0,1,
scooby_state_4456c6|18|3 1,0,0,0,0,0,0,0,0,0,0,0,0,0,0,1,
scooby_state_4438f9|27|-30 1,0,0,0,0,0,0,0,0,0,0,0,0,0,0,1,
scooby_state_44467d|42|0 1,0,0,0,0,0,0,0,0,0,0,0,0,0,0,1,
scooby_state_445428|2|-50 1,0,0,0,0,0,0,0,0,0,0,0,0,0,0,1,
scooby_state_444001|0|-33 1,0,0,0,0,0,0,0,0,0,0,0,0,0,0,1,
scooby_state_445631|15|-46 1,0,0,0,0,0,0,0,0,0,0,0,0,0,0,1,
scooby_state_4374d4|35|0 1,0,0,0,0,0,0,0,0,0,0,0,0,0,0,1,
scooby_state_4456c6|50|4 1,0,0,0,0,0,0,0,0,0,0,0,0,0,0,1,
scooby_state_44330d|16|2 1,0,0,0,0,0,0,0,0,0,0,0,0,0,0,1,
scooby_state_443b57|0|-60 1,0,0,0,0,0,0,0,0,0,0,0,0,0,0,1,
scooby_state_443b90|59|11 1,0,0,0,0,0,0,0,0,0,0,0,0,0,0,1,
scooby_state_4443ca|35|-23 1,0,0,0,0,0,0,0,0,0,0,0,0,0,0,1,
scooby_state_4456c6|19|4 1,0,0,0,0,0,0,0,0,0,0,0,0,0,0,1,
scooby_state_44317e|56|1 1,0,0,0,0,0,0,0,0,0,0,0,0,0,0,1,
scooby_state_44551d|56|44 1,0,0,0,0,0,0,0,0,0,0,0,0,0,0,1,
scooby_state_443334|40|4 1,0,0,0,0,0,0,0,0,0,0,0,0,0,0,1,
scooby_state_445657|12|-45 1,0,0,0,0,0,0,0,0,0,0,0,0,0,0,1,
scooby_state_44330d|2|2 1,0,0,0,0,0,0,0,0,0,0,0,0,0,0,1,
scooby_state_443c00|46|-17 1,0,0,0,0,0,0,0,0,0,0,0,0,0,0,1,
scooby_state_444405|8|6 1,0,0,0,0,0,0,0,0,0,0,0,0,0,0,1,
scooby_state_4453ed|35|-27 1,0,0,0,0,0,0,0,0,0,0,0,0,0,0,1,
scooby_state_44589a|5|-3 1,0,0,0,0,0,0,0,0,0,0,0,0,0,0,1,
scooby_state_437356|45|0 0,0,0,0,0,0,0,0,0,0,0,0,1,0,0,1,
scooby_state_418ec1|44|5 1,0,0,0,0,0,0,0,0,0,0,0,0,0,0,1,
scooby_state_436545|21|1 1,0,0,0,0,0,0,0,0,0,0,0,0,0,0,1,
scooby_state_443b57|22|-37 1,0,0,0,0,0,0,0,0,0,0,0,0,0,0,1,
scooby_state_415844|32|-1 1,0,0,0,0,0,0,0,0,0,0,0,0,0,0,1,
scooby_state_4439d6|45|-13 1,0,0,0,0,0,0,0,0,0,0,0,0,0,0,1,
scooby_state_417643|25|1 1,0,0,0,0,0,0,0,0,0,0,0,0,0,0,1,
scooby_state_4438f9|45|8 1,0,0,0,0,0,0,0,0,0,0,0,0,0,0,1,
scooby_state_417be5|18|1 1,0,0,0,0,0,0,0,0,0,0,0,0,0,0,1,
scooby_state_443c00|43|8 1,0,0,0,0,0,0,0,0,0,0,0,0,0,0,1,
scooby_state_418799|34|5 1,0,0,0,0,0,0,0,0,0,0,0,0,0,0,1,
scooby_state_436a86|5|2 1,0,0,0,0,0,0,0,0,0,0,0,0,0,0,1,
scooby_state_443b81|46|32 1,0,0,0,0,0,0,0,0,0,0,0,0,0,0,1,
scooby_state_44330d|17|2 1,0,0,0,0,0,0,0,0,0,0,0,0,0,0,1,
scooby_state_434f3e|4|1 1,0,0,0,0,0,0,0,0,0,0,0,0,0,0,1,
scooby_state_4438de|42|33 1,0,0,0,0,0,0,0,0,0,0,0,0,0,0,1,
scooby_state_4438f9|59|14 1,0,0,0,0,0,0,0,0,0,0,0,0,0,0,1,
scooby_state_4433fb|58|1 1,0,0,0,0,0,0,0,0,0,0,0,0,0,0,1,
scooby_state_443432|25|2 1,0,0,0,0,0,0,0,0,0,0,0,0,0,0,1,
scooby_state_44330d|21|4 1,0,0,0,0,0,0,0,0,0,0,0,0,0,0,1,
scooby_state_445841|41|-4 1,0,0,0,0,0,0,0,0,0,0,0,0,0,0,1,
scooby_state_4193e8|13|6 1,0,0,0,0,0,0,0,0,0,0,0,0,0,0,1,
scooby_state_4433eb|35|18 1,0,0,0,0,0,0,0,0,0,0,0,0,0,0,1,
scooby_state_418e41|2|-2 1,0,0,0,0,0,0,0,0,0,0,0,0,0,0,1,
scooby_state_44557c|20|0 1,0,0,0,0,0,0,0,0,0,0,0,0,0,0,1,
scooby_state_4442cc|19|0 1,0,0,0,0,0,0,0,0,0,0,0,0,0,0,1,
scooby_state_445727|53|10 1,0,0,0,0,0,0,0,0,0,0,0,0,0,0,1,
scooby_state_443c00|34|-26 1,0,0,0,0,0,0,0,0,0,0,0,0,0,0,1,
scooby_state_4445e8|19|1 1,0,0,0,0,0,0,0,0,0,0,0,0,0,0,1,
scooby_state_443b31|17|-26 1,0,0,0,0,0,0,0,0,0,0,0,0,0,0,1,
scooby_state_401cc3|51|1 1,0,0,0,0,0,0,0,0,0,0,0,0,0,0,1,
scooby_state_44317e|42|1 1,0,0,0,0,0,0,0,0,0,0,0,0,0,0,1,
scooby_state_443b81|22|5 1,0,0,0,0,0,0,0,0,0,0,0,0,0,0,1,
scooby_state_44330d|5|4 1,0,0,0,0,0,0,0,0,0,0,0,0,0,0,1,
scooby_state_435ac2|43|1 1,0,0,0,0,0,0,0,0,0,0,0,0,0,0,1,
scooby_state_443ab6|16|0 1,0,0,0,0,0,0,0,0,0,0,0,0,0,0,1,
scooby_state_443044|25|4 1,0,0,0,0,0,0,0,0,0,0,0,0,0,0,1,
scooby_state_442a81|46|30 1,0,0,0,0,0,0,0,0,0,0,0,0,0,0,1,
scooby_state_445681|26|1 1,0,0,0,0,0,0,0,0,0,0,0,0,0,0,1,
scooby_state_43615e|55|-2 0,0,0,0,0,0,0,0,0,0,0,0,1,0,0,1,
scooby_state_443123|16|4 1,0,0,0,0,0,0,0,0,0,0,0,0,0,0,1,
scooby_state_4444b1|60|0 1,0,0,0,0,0,0,0,0,0,0,0,0,0,0,1,
scooby_state_445681|34|19 1,0,0,0,0,0,0,0,0,0,0,0,0,0,0,1,
scooby_state_4433fb|43|1 1,0,0,0,0,0,0,0,0,0,0,0,0,0,0,1,
scooby_state_444519|16|2 1,0,0,0,0,0,0,0,0,0,0,0,0,0,0,1,
scooby_state_444405|16|8 1,0,0,0,0,0,0,0,0,0,0,0,0,0,0,1,
scooby_state_44316e|39|1 1,0,0,0,0,0,0,0,0,0,0,0,0,0,0,1,
scooby_state_4453ed|47|-16 1,0,0,0,0,0,0,0,0,0,0,0,0,0,0,1,
scooby_state_418290|37|6 1,0,0,0,0,0,0,0,0,0,0,0,0,0,0,1,
scooby_state_41673c|3|-1 1,0,0,0,0,0,0,0,0,0,0,0,0,0,0,1,
scooby_state_4367c6|31|1 1,0,0,0,0,0,0,0,0,0,0,0,0,0,0,1,
scooby_state_4442c6|47|0 1,0,0,0,0,0,0,0,0,0,0,0,0,0,0,1,
scooby_state_443b31|32|14 1,0,0,0,0,0,0,0,0,0,0,0,0,0,0,1,
scooby_state_47f7c0|31|0 1,0,0,0,0,0,0,0,0,0,0,0,0,0,0,1,
scooby_state_4442e1|57|10 1,0,0,0,0,0,0,0,0,0,0,0,0,0,0,1,
scooby_state_4439d6|39|-9 1,0,0,0,0,0,0,0,0,0,0,0,0,0,0,1,
scooby_state_443946|55|21 1,0,0,0,0,0,0,0,0,0,0,0,0,0,0,1,
scooby_state_443b90|37|-16 1,0,0,0,0,0,0,0,0,0,0,0,0,0,0,1,
scooby_state_443123|46|3 1,0,0,0,0,0,0,0,0,0,0,0,0,0,0,1,
scooby_state_4454f3|40|4 1,0,0,0,0,0,0,0,0,0,0,0,0,0,0,1,
scooby_state_436f1e|46|22 0,0,0,0,0,0,0,1,0,0,0,0,0,0,0,1,
scooby_state_443a1d|59|47 1,0,0,0,0,0,0,0,0,0,0,0,0,0,0,1,
scooby_state_4a4337|12|9 1,0,0,0,0,0,0,0,0,0,0,0,0,0,0,1,
scooby_state_4453ed|36|4 1,0,0,0,0,0,0,0,0,0,0,0,0,0,0,1,
scooby_state_442d99|46|30 1,0,0,0,0,0,0,0,0,0,0,0,0,0,0,1,
scooby_state_443b90|51|12 1,0,0,0,0,0,0,0,0,0,0,0,0,0,0,1,
scooby_state_4438f9|53|2 1,0,0,0,0,0,0,0,0,0,0,0,0,0,0,1,
scooby_state_4456c6|8|3 1,0,0,0,0,0,0,0,0,0,0,0,0,0,0,1,
scooby_state_4442e1|56|10 1,0,0,0,0,0,0,0,0,0,0,0,0,0,0,1,
scooby_state_44460f|53|6 1,0,0,0,0,0,0,0,0,0,0,0,0,0,0,1,
scooby_state_442db1|15|-29 1,0,0,0,0,0,0,0,0,0,0,0,0,0,0,1,
scooby_state_44341a|18|4 1,0,0,0,0,0,0,0,0,0,0,0,0,0,0,1,
scooby_state_442d99|44|30 1,0,0,0,0,0,0,0,0,0,0,0,0,0,0,1,
scooby_state_4444d9|6|-43 1,0,0,0,0,0,0,0,0,0,0,0,0,0,0,1,
scooby_state_444405|58|-1 1,0,0,0,0,0,0,0,0,0,0,0,0,0,0,1,
scooby_state_445606|24|1 1,0,0,0,0,0,0,0,0,0,0,0,0,0,0,1,
scooby_state_443108|23|1 1,0,0,0,0,0,0,0,0,0,0,0,0,0,0,1,
scooby_state_4438f9|59|11 1,0,0,0,0,0,0,0,0,0,0,0,0,0,0,1,
scooby_state_4453ed|47|6 1,0,0,0,0,0,0,0,0,0,0,0,0,0,0,1,
scooby_state_44551d|9|-13 1,0,0,0,0,0,0,0,0,0,0,0,0,0,0,1,
scooby_state_4454f3|32|-11 1,0,0,0,0,0,0,0,0,0,0,0,0,0,0,1,
scooby_state_444519|39|19 1,0,0,0,0,0,0,0,0,0,0,0,0,0,0,1,
scooby_state_443a1d|1|-41 1,0,0,0,0,0,0,0,0,0,0,0,0,0,0,1,
scooby_state_4445e8|51|4 1,0,0,0,0,0,0,0,0,0,0,0,0,0,0,1,
scooby_state_4442c6|57|32 1,0,0,0,0,0,0,0,0,0,0,0,0,0,0,1,
scooby_state_443b37|12|0 1,0,0,0,0,0,0,0,0,0,0,0,0,0,0,1,
scooby_state_443b31|13|-4 1,0,0,0,0,0,0,0,0,0,0,0,0,0,0,1,
scooby_state_443c27|57|-4 1,0,0,0,0,0,0,0,0,0,0,0,0,0,0,1,
scooby_state_418799|33|5 1,0,0,0,0,0,0,0,0,0,0,0,0,0,0,1,
scooby_state_436f1e|34|23 0,0,0,0,0,0,0,1,0,0,0,0,0,0,0,1,
scooby_state_443c00|52|-11 1,0,0,0,0,0,0,0,0,0,0,0,0,0,0,1,
scooby_state_4453ed|58|4 1,0,0,0,0,0,0,0,0,0,0,0,0,0,0,1,
scooby_state_418799|63|6 1,0,0,0,0,0,0,0,0,0,0,0,0,0,0,1,
scooby_state_443a1d|56|41 1,0,0,0,0,0,0,0,0,0,0,0,0,0,0,1,
scooby_state_4439d6|34|-13 1,0,0,0,0,0,0,0,0,0,0,0,0,0,0,1,
scooby_state_442e0a|43|1 1,0,0,0,0,0,0,0,0,0,0,0,0,0,0,1,
scooby_state_44449e|63|0 1,0,0,0,0,0,0,0,0,0,0,0,0,0,0,1,

scooby_action_0_deg_dist 0,112802,0,0,0,0,0,0,0,0,0,0,0,0,0,0,
scooby_action_22_deg_dist 0,43174,125,0,7,0,0,0,0,0,0,0,0,0,0,0,
scooby_action_3_deg_dist 0,11772,50,0,40,0,1,0,0,0,0,0,0,0,0,0,
scooby_action_32_deg_dist 0,8256,0,0,0,0,0,0,0,0,0,0,0,0,0,0,
scooby_action_5_deg_dist 0,12199,562,0,1347,0,7805,0,0,0,0,0,0,0,0,0,
scooby_action_4_deg_dist 0,10929,41,0,33,0,0,0,0,0,0,0,0,0,0,0,
scooby_action_1_deg_dist 0,3118824,128008,0,272501,0,2513742,0,0,0,0,0,0,0,0,0,
scooby_action_30_deg_dist 0,152016,10,0,0,0,0,0,0,0,0,0,0,0,0,0,
scooby_action_-3_deg_dist 0,45049,16439,0,38321,0,242613,0,0,0,0,0,0,0,0,0,
scooby_action_10_deg_dist 0,10376,35,0,27,0,1,0,0,0,0,0,0,0,0,0,
scooby_action_-1_deg_dist 0,45910,18791,0,46499,0,261781,0,0,0,0,0,0,0,0,0,
scooby_action_23_deg_dist 0,3464555,338798,0,70,0,107,0,0,0,0,0,0,0,0,0,
scooby_action_-6_deg_dist 0,40841,8161,0,19257,0,118798,0,0,0,0,0,0,0,0,0,
scooby_action_11_deg_dist 0,1073162,582586,0,176801,0,52,0,0,0,0,0,0,0,0,0,
scooby_action_12_deg_dist 0,14282,90,0,40,0,2,0,0,0,0,0,0,0,0,0,

scooby_track_called 12957688
scooby_track_same_address 258756
scooby_track_evict 12698676

scooby_reward_demand_called 12957688
scooby_reward_demand_pt_not_found 6463919
scooby_reward_demand_pt_found 6493769
scooby_reward_demand_pt_found_total 6493769
scooby_reward_demand_has_reward 2801
scooby_reward_train_called 4425473
scooby_reward_assign_reward_called 12698758
scooby_reward_no_pref 112795
scooby_reward_incorrect 4312678
scooby_reward_correct_untimely 5080199
scooby_reward_correct_timely 1410769
scooby_reward_out_of_bounds 1782317
scooby_reward_tracker_hit 0

scooby_reward_none_low_bw 112795
scooby_reward_none_high_bw 0
scooby_reward_incorrect_low_bw 4312678
scooby_reward_incorrect_high_bw 0
scooby_reward_correct_untimely_low_bw 5080199
scooby_reward_correct_untimely_high_bw 0
scooby_reward_correct_timely_low_bw 1410769
scooby_reward_correct_timely_high_bw 0
scooby_reward_out_of_bounds_low_bw 1782317
scooby_reward_out_of_bounds_high_bw 0
scooby_reward_tracker_hit_low_bw 0
scooby_reward_tracker_hit_high_bw 0

scooby_reward_1 0,2785045,2783162,161809,99622,0,
scooby_reward_3 0,10343,706,45,632,0,
scooby_reward_4 0,9715,260,69,868,0,
scooby_reward_5 0,10462,8748,645,1969,0,
scooby_reward_10 0,8255,51,225,1839,0,
scooby_reward_11 0,510594,582615,379900,317407,0,
scooby_reward_12 0,9766,1284,576,2513,0,
scooby_reward_22 0,20839,8336,5057,9072,0,
scooby_reward_23 0,788042,941615,794670,1279175,0,
scooby_reward_30 0,77801,33760,13620,26790,0,
scooby_reward_32 0,3706,6,17,4527,0,
scooby_reward_-1 0,18744,318348,18289,6360,0,
scooby_reward_-3 0,25391,277791,21742,16435,0,
scooby_reward_-6 0,33975,123517,14105,15108,0,
scooby_reward_0 112795,0,0,0,0,0,

scooby_train_called 12698675
scooby_train_compute_reward 4425473

scooby_register_fill_called 6347147
scooby_register_fill_set 3885876
scooby_register_fill_set_total 3885876

scooby_register_prefetch_hit_called 19261019
scooby_register_prefetch_hit_set 6807204
scooby_register_prefetch_hit_set_total 6807204

scooby_pref_issue_scooby 26324865

learning_engine_featurewise.action.called 12957688
learning_engine_featurewise.action.explore 23478
learning_engine_featurewise.action.exploit 12934210
learning_engine_featurewise.action.fallback 2785550
learning_engine_featurewise.action.dyn_fallback_saved_bw 0
learning_engine_featurewise.action.dyn_fallback_saved_bw_acc 733154
learning_engine_featurewise.action.index_1_explored 1598
learning_engine_featurewise.action.index_1_exploited 6031477
learning_engine_featurewise.action.index_3_explored 1554
learning_engine_featurewise.action.index_3_exploited 10309
learning_engine_featurewise.action.index_4_explored 1615
learning_engine_featurewise.action.index_4_exploited 9388
learning_engine_featurewise.action.index_5_explored 1537
learning_engine_featurewise.action.index_5_exploited 20376
learning_engine_featurewise.action.index_10_explored 1588
learning_engine_featurewise.action.index_10_exploited 8851
learning_engine_featurewise.action.index_11_explored 1543
learning_engine_featurewise.action.index_11_exploited 1831058
learning_engine_featurewise.action.index_12_explored 1642
learning_engine_featurewise.action.index_12_exploited 12772
learning_engine_featurewise.action.index_22_explored 1600
learning_engine_featurewise.action.index_22_exploited 41706
learning_engine_featurewise.action.index_23_explored 1521
learning_engine_featurewise.action.index_23_exploited 3802009
learning_engine_featurewise.action.index_30_explored 1561
learning_engine_featurewise.action.index_30_exploited 150465
learning_engine_featurewise.action.index_32_explored 1502
learning_engine_featurewise.action.index_32_exploited 6754
learning_engine_featurewise.action.index_-1_explored 1582
learning_engine_featurewise.action.index_-1_exploited 371399
learning_engine_featurewise.action.index_-3_explored 1539
learning_engine_featurewise.action.index_-3_exploited 340883
learning_engine_featurewise.action.index_-6_explored 1526
learning_engine_featurewise.action.index_-6_exploited 185531
learning_engine_featurewise.action.index_0_explored 1570
learning_engine_featurewise.action.index_0_exploited 111232
learning_engine_featurewise.learn.called 12698675
learning_engine_featurewise.learn.su_skip_PC 0
learning_engine_featurewise.learn.su_skip_PC_Delta 0

learning_engine_featurewise.q_value_histogram.bucket_0 186222
learning_engine_featurewise.q_value_histogram.bucket_1 115588
learning_engine_featurewise.q_value_histogram.bucket_2 3879889
learning_engine_featurewise.q_value_histogram.bucket_3 383502
learning_engine_featurewise.q_value_histogram.bucket_4 944795
learning_engine_featurewise.q_value_histogram.bucket_5 2157425
learning_engine_featurewise.q_value_histogram.bucket_6 5266789
learning_engine_featurewise.q_value_histogram.bucket_7 0

learning_engine_featurewise.consensus.total 12934210
learning_engine_featurewise.consensus.feature_align_PC 11933505
learning_engine_featurewise.consensus.feature_align_PC_ratio 0.92
learning_engine_featurewise.consensus.feature_align_PC_Delta 10752271
learning_engine_featurewise.consensus.feature_align_PC_Delta_ratio 0.83
learning_engine_featurewise.consensus.feature_align_all 10053173
learning_engine_featurewise.consensus.feature_align_all_ratio 0.78

learning_engine_featurewise.feature_PC_min_weight 1000000.00000000
learning_engine_featurewise.feature_PC_max_weight 0.00000000
learning_engine_featurewise.feature_PC_Delta_min_weight 1000000.00000000
learning_engine_featurewise.feature_PC_Delta_max_weight 0.00000000
unique_pcs 1584
unique_pages 101432
unique_trigger_pcs 574
total_bitmaps_seen 0
unique_bitmaps_seen 0

scooby_bw_epochs 3835324
scooby_bw_level_0 1379223
scooby_bw_level_1 723352
scooby_bw_level_2 0
scooby_bw_level_3 1732749

scooby_ipc_epochs 0
scooby_ipc_level_0 0
scooby_ipc_level_1 0
scooby_ipc_level_2 0
scooby_ipc_level_3 0

scooby_cache_acc_epochs 910078
scooby_cache_acc_level_0 28531
scooby_cache_acc_level_1 25406
scooby_cache_acc_level_2 51332
scooby_cache_acc_level_3 89915
scooby_cache_acc_level_4 131376
scooby_cache_acc_level_5 113152
scooby_cache_acc_level_6 87837
scooby_cache_acc_level_7 75219
scooby_cache_acc_level_8 69910
scooby_cache_acc_level_9 237400

Channel_0_RQ_row_buffer_hit 1374888
Channel_0_RQ_row_buffer_miss 2567752
Channel_0_WQ_row_buffer_hit 337159
Channel_0_WQ_row_buffer_miss 468050
Channel_0_WQ_full 0
Channel_0_dbus_congested 3477700

avg_congested_cycle 90

DRAM_bw_pochs 3835324
DRAM_bw_level_0 1379223
DRAM_bw_level_1 723352
DRAM_bw_level_2 0
DRAM_bw_level_3 1732749
